<?xml version="1.0" encoding="UTF-8"?>

<!-- generated on 2026-03-17 10:48:34.013877 by Eclipse SUMO osmWebWizard.py v1.26.0
<configuration>
    <net-file value="/home/matteo/Sumo/2026-03-17-10-48-18/osm.net.xml.gz"/>
    <output-trip-file value="/home/matteo/Sumo/2026-03-17-10-48-18/osm.passenger.trips.xml"/>
    <route-file value="/home/matteo/Sumo/2026-03-17-10-48-18/osm.passenger.rou.xml"/>
    <prefix value="veh"/>
    <trip-attributes value="departLane=&quot;best&quot;"/>
    <fringe-start-attributes value="departSpeed=&quot;max&quot;"/>
    <vehicle-class value="passenger"/>
    <lanes value="True"/>
    <fringe-factor value="5"/>
    <allow-fringe.min-length value="1000.0"/>
    <edge-permission value="passenger"/>
    <via-edge-types value="highway.motorway,highway.motorway_link,highway.trunk_link,highway.primary_link,highway.secondary_link,highway.tertiary_link"/>
    <min-distance value="300.0"/>
    <min-distance.fringe value="10.0"/>
    <remove-loops value="True"/>
    <insertion-density value="12.0"/>
</configuration>
-->

<routes xmlns:xsi="http://www.w3.org/2001/XMLSchema-instance" xsi:noNamespaceSchemaLocation="http://sumo.dlr.de/xsd/routes_file.xsd">
    <vType id="veh_passenger" vClass="passenger"/>
    <trip id="veh0" depart="0.00" from="23296952#0" to="-103538896" departLane="best" type="veh_passenger"/>
    <trip id="veh1" depart="16.91" from="135982476#0" to="1467263794#0" departLane="best" type="veh_passenger" departSpeed="max"/>
    <trip id="veh2" depart="33.82" from="292179033#4" to="292179033#9" departLane="best" type="veh_passenger"/>
    <trip id="veh3" depart="50.73" from="391140800#2" to="-237638594#0" departLane="best" type="veh_passenger"/>
    <trip id="veh4" depart="67.63" from="1472800673#0" to="-1103834241" departLane="best" type="veh_passenger" departSpeed="max"/>
    <trip id="veh5" depart="84.54" from="-170687890" to="1221422471" departLane="best" type="veh_passenger" departSpeed="max"/>
    <trip id="veh6" depart="101.45" from="237638594#0" to="23837909#0" departLane="best" type="veh_passenger" departSpeed="max"/>
    <trip id="veh7" depart="118.36" from="103538896" to="23837911#0" departLane="best" type="veh_passenger" departSpeed="max"/>
    <trip id="veh8" depart="135.27" from="31103210" to="-103538896" departLane="best" type="veh_passenger"/>
    <trip id="veh9" depart="152.18" from="1462715258" to="-455829556#2" departLane="best" type="veh_passenger" departSpeed="max"/>
    <trip id="veh10" depart="169.08" from="-33523578#2" to="-237638594#1" departLane="best" type="veh_passenger" departSpeed="max"/>
    <trip id="veh11" depart="185.99" from="33523402" to="23837911#4" departLane="best" type="veh_passenger"/>
    <trip id="veh12" depart="202.90" from="23271732#0" to="83202926#2" departLane="best" type="veh_passenger"/>
    <trip id="veh13" depart="219.81" from="33523355#0" to="292179033#0" departLane="best" type="veh_passenger"/>
    <trip id="veh14" depart="236.72" from="34034103#1" to="23837911#0" departLane="best" type="veh_passenger"/>
    <trip id="veh15" depart="253.63" from="23837911#4" to="-171520872#1" departLane="best" type="veh_passenger"/>
    <trip id="veh16" depart="270.54" from="103538896" to="1467263796#0" departLane="best" type="veh_passenger" departSpeed="max"/>
    <trip id="veh17" depart="287.44" from="-33523355#2" to="1467263794#0" departLane="best" type="veh_passenger"/>
    <trip id="veh18" depart="304.35" from="-33523578#2" to="1467263796#0" departLane="best" type="veh_passenger" departSpeed="max"/>
    <trip id="veh19" depart="321.26" from="23295986#0" to="170687890" departLane="best" type="veh_passenger"/>
    <trip id="veh20" depart="338.17" from="135982476#0" to="83202926#2" departLane="best" type="veh_passenger" departSpeed="max"/>
    <trip id="veh21" depart="355.08" from="237638594#0" to="23837911#4" departLane="best" type="veh_passenger" departSpeed="max"/>
    <trip id="veh22" depart="371.99" from="-685037225#1" to="31103210" departLane="best" type="veh_passenger" departSpeed="max"/>
    <trip id="veh23" depart="388.89" from="-38592259" to="23185949" departLane="best" type="veh_passenger" departSpeed="max"/>
    <trip id="veh24" depart="405.80" from="23271799#0" to="30814311#0" departLane="best" type="veh_passenger" departSpeed="max"/>
    <trip id="veh25" depart="422.71" from="33523355#4" to="33523578#0" departLane="best" type="veh_passenger"/>
    <trip id="veh26" depart="439.62" from="103538896" to="83202926#2" departLane="best" type="veh_passenger" departSpeed="max"/>
    <trip id="veh27" depart="456.53" from="237638594#0" to="23271728#0" departLane="best" type="veh_passenger" departSpeed="max"/>
    <trip id="veh28" depart="473.44" from="455829556#0" to="23276726#0" departLane="best" type="veh_passenger" departSpeed="max"/>
    <trip id="veh29" depart="490.35" from="23276172#0" to="685037225#0" departLane="best" type="veh_passenger"/>
    <trip id="veh30" depart="507.25" from="1472800673#0" to="135982476#3" departLane="best" type="veh_passenger" departSpeed="max"/>
    <trip id="veh31" depart="524.16" from="-33523355#4" to="-171520872#1" departLane="best" type="veh_passenger"/>
    <trip id="veh32" depart="541.07" from="-33523578#2" to="292179033#0" departLane="best" type="veh_passenger" departSpeed="max"/>
    <trip id="veh33" depart="557.98" from="-30814311#1" to="23185949" departLane="best" type="veh_passenger"/>
    <trip id="veh34" depart="574.89" from="971680056#0" to="23837909#0" departLane="best" type="veh_passenger"/>
    <trip id="veh35" depart="591.80" from="83202926#0" to="38592259" departLane="best" type="veh_passenger"/>
    <trip id="veh36" depart="608.70" from="-170687890" to="30959354#0" departLane="best" type="veh_passenger" departSpeed="max"/>
    <trip id="veh37" depart="625.61" from="135982476#0" to="292179033#4" departLane="best" type="veh_passenger" departSpeed="max"/>
    <trip id="veh38" depart="642.52" from="-33523578#2" to="23276536" departLane="best" type="veh_passenger" departSpeed="max"/>
    <trip id="veh39" depart="659.43" from="1472850568#0" to="83202926#2" departLane="best" type="veh_passenger"/>
    <trip id="veh40" depart="676.34" from="171520872#0" to="1067121593#0" departLane="best" type="veh_passenger" departSpeed="max"/>
    <trip id="veh41" depart="693.25" from="455829556#0" to="391140800#0" departLane="best" type="veh_passenger" departSpeed="max"/>
    <trip id="veh42" depart="710.16" from="135982476#0" to="292179033#4" departLane="best" type="veh_passenger" departSpeed="max"/>
    <trip id="veh43" depart="727.06" from="23276766#0" to="-455829556#2" departLane="best" type="veh_passenger"/>
    <trip id="veh44" depart="743.97" from="292179033#7" to="23837909#0" departLane="best" type="veh_passenger"/>
    <trip id="veh45" depart="760.88" from="292179033#9" to="23837909#0" departLane="best" type="veh_passenger"/>
    <trip id="veh46" depart="777.79" from="-1023996215#2" to="1472850568#0" departLane="best" type="veh_passenger"/>
    <trip id="veh47" depart="794.70" from="-170687890" to="83202926#0" departLane="best" type="veh_passenger" departSpeed="max"/>
    <trip id="veh48" depart="811.61" from="34036009#0" to="37711918" departLane="best" type="veh_passenger"/>
    <trip id="veh49" depart="828.51" from="135982476#0" to="-23276766#0" departLane="best" type="veh_passenger" departSpeed="max"/>
    <trip id="veh50" depart="845.42" from="34036009#0" to="83202926#2" departLane="best" type="veh_passenger"/>
    <trip id="veh51" depart="862.33" from="-33523355#3" to="23295986#0" departLane="best" type="veh_passenger"/>
    <trip id="veh52" depart="879.24" from="292179033#7" to="-33523355#4" departLane="best" type="veh_passenger"/>
    <trip id="veh53" depart="896.15" from="1472850569#1" to="23837909#0" departLane="best" type="veh_passenger"/>
    <trip id="veh54" depart="913.06" from="135982476#0" to="391140800#2" departLane="best" type="veh_passenger" departSpeed="max"/>
    <trip id="veh55" depart="929.97" from="1472800673#0" to="135982476#3" departLane="best" type="veh_passenger" departSpeed="max"/>
    <trip id="veh56" depart="946.87" from="23271762#1" to="31103210" departLane="best" type="veh_passenger"/>
    <trip id="veh57" depart="963.78" from="-945850922" to="1467263797#0" departLane="best" type="veh_passenger"/>
    <trip id="veh58" depart="980.69" from="971680056#0" to="292179033#6" departLane="best" type="veh_passenger"/>
    <trip id="veh59" depart="997.60" from="-37711918" to="1467263794#0" departLane="best" type="veh_passenger" departSpeed="max"/>
    <trip id="veh60" depart="1014.51" from="103538896" to="135982476#3" departLane="best" type="veh_passenger" departSpeed="max"/>
    <trip id="veh61" depart="1031.42" from="34034103#1" to="-237638594#0" departLane="best" type="veh_passenger"/>
    <trip id="veh62" depart="1048.32" from="103538896" to="-379112060#2" departLane="best" type="veh_passenger" departSpeed="max"/>
    <trip id="veh63" depart="1065.23" from="455829556#0" to="23837909#0" departLane="best" type="veh_passenger" departSpeed="max"/>
    <trip id="veh64" depart="1082.14" from="1472850569#0" to="33523578#0" departLane="best" type="veh_passenger"/>
    <trip id="veh65" depart="1099.05" from="1472800673#0" to="23276726#0" departLane="best" type="veh_passenger" departSpeed="max"/>
    <trip id="veh66" depart="1115.96" from="292179033#4" to="292179033#9" departLane="best" type="veh_passenger"/>
    <trip id="veh67" depart="1132.87" from="95408280#0" to="-237638594#3" departLane="best" type="veh_passenger"/>
    <trip id="veh68" depart="1149.78" from="1472800673#0" to="1472850569#0" departLane="best" type="veh_passenger" departSpeed="max"/>
    <trip id="veh69" depart="1166.68" from="34034103#1" to="1467263796#0" departLane="best" type="veh_passenger"/>
    <trip id="veh70" depart="1183.59" from="-808547875" to="23276555" departLane="best" type="veh_passenger"/>
    <trip id="veh71" depart="1200.50" from="1472800673#0" to="1467263796#0" departLane="best" type="veh_passenger" departSpeed="max"/>
    <trip id="veh72" depart="1217.41" from="135982476#0" to="696335396#2" departLane="best" type="veh_passenger" departSpeed="max"/>
    <trip id="veh73" depart="1234.32" from="1472800673#0" to="38592259" departLane="best" type="veh_passenger" departSpeed="max"/>
    <trip id="veh74" depart="1251.23" from="23271762#3" to="-171520872#1" departLane="best" type="veh_passenger"/>
    <trip id="veh75" depart="1268.13" from="1472800673#0" to="-23276766#0" departLane="best" type="veh_passenger" departSpeed="max"/>
    <trip id="veh76" depart="1285.04" from="1472800673#0" to="95408280#0" departLane="best" type="veh_passenger" departSpeed="max"/>
    <trip id="veh77" depart="1301.95" from="135982476#0" to="33523578#0" departLane="best" type="veh_passenger" departSpeed="max"/>
    <trip id="veh78" depart="1318.86" from="1472850568#0" to="23276172#0" departLane="best" type="veh_passenger"/>
    <trip id="veh79" depart="1335.77" from="455829556#0" to="971680056#0" departLane="best" type="veh_passenger" departSpeed="max"/>
    <trip id="veh80" depart="1352.68" from="23271799#0" to="30959354#0" departLane="best" type="veh_passenger" departSpeed="max"/>
    <trip id="veh81" depart="1369.59" from="-38592259" to="1467263796#0" departLane="best" type="veh_passenger" departSpeed="max"/>
    <trip id="veh82" depart="1386.49" from="-237638594#3" to="23837911#0" departLane="best" type="veh_passenger"/>
    <trip id="veh83" depart="1403.40" from="-38592259" to="83202926#2" departLane="best" type="veh_passenger" departSpeed="max"/>
    <trip id="veh84" depart="1420.31" from="-33523355#2" to="1221422471" departLane="best" type="veh_passenger"/>
    <trip id="veh85" depart="1437.22" from="391140800#2" to="1467263796#0" departLane="best" type="veh_passenger"/>
    <trip id="veh86" depart="1454.13" from="23271717" to="83202926#2" departLane="best" type="veh_passenger"/>
    <trip id="veh87" depart="1471.04" from="1023996215#0" to="30959354#0" departLane="best" type="veh_passenger"/>
    <trip id="veh88" depart="1487.94" from="1103834241" to="23271728#0" departLane="best" type="veh_passenger"/>
    <trip id="veh89" depart="1504.85" from="237638594#2" to="1467263797#0" departLane="best" type="veh_passenger"/>
    <trip id="veh90" depart="1521.76" from="135982476#3" to="33523355#2" departLane="best" type="veh_passenger"/>
    <trip id="veh91" depart="1538.67" from="-30824033#5" to="23276726#0" departLane="best" type="veh_passenger"/>
    <trip id="veh92" depart="1555.58" from="971680056#0" to="971680056#0" departLane="best" type="veh_passenger"/>
    <trip id="veh93" depart="1572.49" from="-30824033#5" to="135982476#3" departLane="best" type="veh_passenger"/>
    <trip id="veh94" depart="1589.40" from="135982476#0" to="83202926#0" departLane="best" type="veh_passenger" departSpeed="max"/>
    <trip id="veh95" depart="1606.30" from="33523355#2" to="30824033#2" departLane="best" type="veh_passenger"/>
    <trip id="veh96" depart="1623.21" from="23276766#0" to="971680056#0" departLane="best" type="veh_passenger"/>
    <trip id="veh97" depart="1640.12" from="33523238#1" to="1467263796#0" departLane="best" type="veh_passenger"/>
    <trip id="veh98" depart="1657.03" from="237638594#0" to="83202926#2" departLane="best" type="veh_passenger" departSpeed="max"/>
    <trip id="veh99" depart="1673.94" from="-37711918" to="-33523355#1" departLane="best" type="veh_passenger" departSpeed="max"/>
    <trip id="veh100" depart="1690.85" from="135982476#0" to="23837911#4" departLane="best" type="veh_passenger" departSpeed="max"/>
    <trip id="veh101" depart="1707.75" from="292179033#0" to="1221422471" departLane="best" type="veh_passenger"/>
    <trip id="veh102" depart="1724.66" from="33523402" to="-237638594#0" departLane="best" type="veh_passenger"/>
    <trip id="veh103" depart="1741.57" from="1472800673#0" to="1467263796#0" departLane="best" type="veh_passenger" departSpeed="max"/>
    <trip id="veh104" depart="1758.48" from="-1023996215#2" to="33523578#0" departLane="best" type="veh_passenger"/>
    <trip id="veh105" depart="1775.39" from="292179033#4" to="23837909#0" departLane="best" type="veh_passenger"/>
    <trip id="veh106" depart="1792.30" from="1472800673#0" to="-103538896" departLane="best" type="veh_passenger" departSpeed="max"/>
    <trip id="veh107" depart="1809.20" from="-33523355#1" to="391140867" departLane="best" type="veh_passenger"/>
    <trip id="veh108" depart="1826.11" from="33523355#3" to="23837911#0" departLane="best" type="veh_passenger"/>
    <trip id="veh109" depart="1843.02" from="-38592259" to="-33523355#3" departLane="best" type="veh_passenger" departSpeed="max"/>
    <trip id="veh110" depart="1859.93" from="135982476#0" to="685037225#0" departLane="best" type="veh_passenger" departSpeed="max"/>
    <trip id="veh111" depart="1876.84" from="30814438#2" to="38592259" departLane="best" type="veh_passenger"/>
    <trip id="veh112" depart="1893.75" from="135982476#0" to="-30814311#1" departLane="best" type="veh_passenger" departSpeed="max"/>
    <trip id="veh113" depart="1910.66" from="1472800673#0" to="292179033#0" departLane="best" type="veh_passenger" departSpeed="max"/>
    <trip id="veh114" depart="1927.56" from="-38592259" to="83202926#0" departLane="best" type="veh_passenger" departSpeed="max"/>
    <trip id="veh115" depart="1944.47" from="34034103#2" to="83202926#2" departLane="best" type="veh_passenger"/>
    <trip id="veh116" depart="1961.38" from="-170687890" to="33523238#1" departLane="best" type="veh_passenger" departSpeed="max"/>
    <trip id="veh117" depart="1978.29" from="30814311#0" to="-30824033#1" departLane="best" type="veh_passenger"/>
    <trip id="veh118" depart="1995.20" from="34035828" to="38592259" departLane="best" type="veh_passenger"/>
    <trip id="veh119" depart="2012.11" from="1472850568#0" to="1467263797#0" departLane="best" type="veh_passenger"/>
    <trip id="veh120" depart="2029.01" from="-170687890" to="1221422471" departLane="best" type="veh_passenger" departSpeed="max"/>
    <trip id="veh121" depart="2045.92" from="1462715258" to="38592259" departLane="best" type="veh_passenger" departSpeed="max"/>
    <trip id="veh122" depart="2062.83" from="696335396#2" to="1467263796#0" departLane="best" type="veh_passenger"/>
    <trip id="veh123" depart="2079.74" from="237638594#0" to="23271728#1" departLane="best" type="veh_passenger" departSpeed="max"/>
    <trip id="veh124" depart="2096.65" from="95408277" to="23837909#0" departLane="best" type="veh_passenger"/>
    <trip id="veh125" depart="2113.56" from="455829556#0" to="-33523355#1" departLane="best" type="veh_passenger" departSpeed="max"/>
    <trip id="veh126" depart="2130.47" from="83202926#0" to="1067121593#0" departLane="best" type="veh_passenger"/>
    <trip id="veh127" depart="2147.37" from="696335395" to="1467263796#0" departLane="best" type="veh_passenger"/>
    <trip id="veh128" depart="2164.28" from="-33523578#2" to="23276536" departLane="best" type="veh_passenger" departSpeed="max"/>
    <trip id="veh129" depart="2181.19" from="292179033#4" to="1467263798#0" departLane="best" type="veh_passenger"/>
    <trip id="veh130" depart="2198.10" from="23276555" to="23837909#0" departLane="best" type="veh_passenger"/>
    <trip id="veh131" depart="2215.01" from="135982476#0" to="30959354#0" departLane="best" type="veh_passenger" departSpeed="max"/>
    <trip id="veh132" depart="2231.92" from="-1023996215#2" to="83202926#0" departLane="best" type="veh_passenger"/>
    <trip id="veh133" depart="2248.82" from="135982476#3" to="38592259" departLane="best" type="veh_passenger"/>
    <trip id="veh134" depart="2265.73" from="292179033#0" to="1467263797#0" departLane="best" type="veh_passenger"/>
    <trip id="veh135" depart="2282.64" from="135982476#3" to="23271762#1" departLane="best" type="veh_passenger"/>
    <trip id="veh136" depart="2299.55" from="1472800673#0" to="1467263796#0" departLane="best" type="veh_passenger" departSpeed="max"/>
    <trip id="veh137" depart="2316.46" from="391140867" to="23837911#4" departLane="best" type="veh_passenger"/>
    <trip id="veh138" depart="2333.37" from="135982476#0" to="23837909#0" departLane="best" type="veh_passenger" departSpeed="max"/>
    <trip id="veh139" depart="2350.28" from="-1023996215#2" to="1467263796#0" departLane="best" type="veh_passenger"/>
    <trip id="veh140" depart="2367.18" from="237638594#0" to="23276726#0" departLane="best" type="veh_passenger" departSpeed="max"/>
    <trip id="veh141" depart="2384.09" from="1472800673#0" to="135982476#3" departLane="best" type="veh_passenger" departSpeed="max"/>
    <trip id="veh142" depart="2401.00" from="1472850569#0" to="685037225#0" departLane="best" type="veh_passenger"/>
    <trip id="veh143" depart="2417.91" from="30814438#2" to="-945850922" departLane="best" type="veh_passenger"/>
    <trip id="veh144" depart="2434.82" from="-33523355#3" to="23837909#0" departLane="best" type="veh_passenger"/>
    <trip id="veh145" depart="2451.73" from="-945850922" to="-103538896" departLane="best" type="veh_passenger"/>
    <trip id="veh146" depart="2468.63" from="135982476#0" to="23276766#0" departLane="best" type="veh_passenger" departSpeed="max"/>
    <trip id="veh147" depart="2485.54" from="33523402" to="-237638594#0" departLane="best" type="veh_passenger"/>
    <trip id="veh148" depart="2502.45" from="1472800673#0" to="292179033#0" departLane="best" type="veh_passenger" departSpeed="max"/>
    <trip id="veh149" depart="2519.36" from="-808547875" to="30824033#0" departLane="best" type="veh_passenger"/>
    <trip id="veh150" depart="2536.27" from="171520872#0" to="1467263796#0" departLane="best" type="veh_passenger" departSpeed="max"/>
    <trip id="veh151" depart="2553.18" from="292179033#6" to="33523402" departLane="best" type="veh_passenger"/>
    <trip id="veh152" depart="2570.09" from="-33523578#2" to="23276172#0" departLane="best" type="veh_passenger" departSpeed="max"/>
    <trip id="veh153" depart="2586.99" from="-685037225#1" to="83202926#2" departLane="best" type="veh_passenger" departSpeed="max"/>
    <trip id="veh154" depart="2603.90" from="23271710" to="-171520872#1" departLane="best" type="veh_passenger"/>
    <trip id="veh155" depart="2620.81" from="135982476#0" to="38592259" departLane="best" type="veh_passenger" departSpeed="max"/>
    <trip id="veh156" depart="2637.72" from="237638594#1" to="971680056#0" departLane="best" type="veh_passenger"/>
    <trip id="veh157" depart="2654.63" from="23276545" to="83202926#2" departLane="best" type="veh_passenger"/>
    <trip id="veh158" depart="2671.54" from="391140800#2" to="23837911#4" departLane="best" type="veh_passenger"/>
    <trip id="veh159" depart="2688.44" from="33523355#2" to="23837909#0" departLane="best" type="veh_passenger"/>
    <trip id="veh160" depart="2705.35" from="1472850569#1" to="1467263796#0" departLane="best" type="veh_passenger"/>
    <trip id="veh161" depart="2722.26" from="135982476#0" to="292179033#4" departLane="best" type="veh_passenger" departSpeed="max"/>
    <trip id="veh162" depart="2739.17" from="292179033#7" to="23837909#0" departLane="best" type="veh_passenger"/>
    <trip id="veh163" depart="2756.08" from="-33523355#1" to="1467263796#0" departLane="best" type="veh_passenger"/>
    <trip id="veh164" depart="2772.99" from="135982476#0" to="1472850568#0" departLane="best" type="veh_passenger" departSpeed="max"/>
    <trip id="veh165" depart="2789.90" from="23271762#1" to="-455829556#2" departLane="best" type="veh_passenger"/>
    <trip id="veh166" depart="2806.80" from="1067121593#0" to="30814438#2" departLane="best" type="veh_passenger"/>
    <trip id="veh167" depart="2823.71" from="1472800673#0" to="1221422471" departLane="best" type="veh_passenger" departSpeed="max"/>
    <trip id="veh168" depart="2840.62" from="1472800673#0" to="685037225#0" departLane="best" type="veh_passenger" departSpeed="max"/>
    <trip id="veh169" depart="2857.53" from="23276172#0" to="30814438#2" departLane="best" type="veh_passenger"/>
    <trip id="veh170" depart="2874.44" from="34034103#0" to="33523402" departLane="best" type="veh_passenger"/>
    <trip id="veh171" depart="2891.35" from="1472800673#0" to="-103538896" departLane="best" type="veh_passenger" departSpeed="max"/>
    <trip id="veh172" depart="2908.25" from="1467263794#0" to="33523355#3" departLane="best" type="veh_passenger"/>
    <trip id="veh173" depart="2925.16" from="34034103#0" to="83202926#2" departLane="best" type="veh_passenger"/>
    <trip id="veh174" depart="2942.07" from="1472800673#0" to="33523355#0" departLane="best" type="veh_passenger" departSpeed="max"/>
    <trip id="veh175" depart="2958.98" from="23271762#2" to="23837911#1" departLane="best" type="veh_passenger"/>
    <trip id="veh176" depart="2975.89" from="103538896" to="135982476#3" departLane="best" type="veh_passenger" departSpeed="max"/>
    <trip id="veh177" depart="2992.80" from="1472800673#0" to="-1103834241" departLane="best" type="veh_passenger" departSpeed="max"/>
    <trip id="veh178" depart="3009.71" from="1462715258" to="292179033#9" departLane="best" type="veh_passenger" departSpeed="max"/>
    <trip id="veh179" depart="3026.61" from="1472850569#0" to="-33523355#3" departLane="best" type="veh_passenger"/>
    <trip id="veh180" depart="3043.52" from="23295986#0" to="-1103834241" departLane="best" type="veh_passenger"/>
    <trip id="veh181" depart="3060.43" from="-37711918" to="23276726#0" departLane="best" type="veh_passenger" departSpeed="max"/>
    <trip id="veh182" depart="3077.34" from="103538896" to="1472850568#0" departLane="best" type="veh_passenger" departSpeed="max"/>
    <trip id="veh183" depart="3094.25" from="292179033#6" to="37711918" departLane="best" type="veh_passenger"/>
    <trip id="veh184" depart="3111.16" from="135982476#0" to="-237638594#0" departLane="best" type="veh_passenger" departSpeed="max"/>
    <trip id="veh185" depart="3128.06" from="-170687890" to="23837909#0" departLane="best" type="veh_passenger" departSpeed="max"/>
    <trip id="veh186" depart="3144.97" from="237638594#0" to="33523578#0" departLane="best" type="veh_passenger" departSpeed="max"/>
    <trip id="veh187" depart="3161.88" from="237638594#0" to="33523355#3" departLane="best" type="veh_passenger" departSpeed="max"/>
    <trip id="veh188" depart="3178.79" from="455829556#0" to="1221422471" departLane="best" type="veh_passenger" departSpeed="max"/>
    <trip id="veh189" depart="3195.70" from="-37711918" to="292179033#7" departLane="best" type="veh_passenger" departSpeed="max"/>
    <trip id="veh190" depart="3212.61" from="33523238#1" to="83202926#2" departLane="best" type="veh_passenger"/>
    <trip id="veh191" depart="3229.52" from="-33523578#2" to="-103538896" departLane="best" type="veh_passenger" departSpeed="max"/>
    <trip id="veh192" depart="3246.42" from="455829556#0" to="23271728#1" departLane="best" type="veh_passenger" departSpeed="max"/>
    <trip id="veh193" depart="3263.33" from="292179033#0" to="-237638594#0" departLane="best" type="veh_passenger"/>
    <trip id="veh194" depart="3280.24" from="23837911#1" to="292179033#0" departLane="best" type="veh_passenger"/>
    <trip id="veh195" depart="3297.15" from="-37711918" to="95408280#0" departLane="best" type="veh_passenger" departSpeed="max"/>
    <trip id="veh196" depart="3314.06" from="1472800673#0" to="170687890" departLane="best" type="veh_passenger" departSpeed="max"/>
    <trip id="veh197" depart="3330.97" from="171520872#0" to="1472850569#0" departLane="best" type="veh_passenger" departSpeed="max"/>
    <trip id="veh198" depart="3347.87" from="33523402" to="37711918" departLane="best" type="veh_passenger"/>
    <trip id="veh199" depart="3364.78" from="23295986#0" to="37711918" departLane="best" type="veh_passenger"/>
    <trip id="veh200" depart="3381.69" from="23837911#4" to="23276536" departLane="best" type="veh_passenger"/>
    <trip id="veh201" depart="3398.60" from="292179033#4" to="83202926#2" departLane="best" type="veh_passenger"/>
    <trip id="veh202" depart="3415.51" from="135982476#0" to="34035657#0" departLane="best" type="veh_passenger" departSpeed="max"/>
    <trip id="veh203" depart="3432.42" from="23271732#0" to="23276766#3" departLane="best" type="veh_passenger"/>
    <trip id="veh204" depart="3449.33" from="1472800673#0" to="31103210" departLane="best" type="veh_passenger" departSpeed="max"/>
    <trip id="veh205" depart="3466.23" from="135982476#0" to="38592259" departLane="best" type="veh_passenger" departSpeed="max"/>
    <trip id="veh206" depart="3483.14" from="33523355#2" to="-237638594#0" departLane="best" type="veh_passenger"/>
    <trip id="veh207" depart="3500.05" from="1472850569#0" to="23837911#4" departLane="best" type="veh_passenger"/>
    <trip id="veh208" depart="3516.96" from="1472800673#0" to="-1103834241" departLane="best" type="veh_passenger" departSpeed="max"/>
    <trip id="veh209" depart="3533.87" from="33523402" to="1103834241" departLane="best" type="veh_passenger"/>
    <trip id="veh210" depart="3550.78" from="103538896" to="34034103#1" departLane="best" type="veh_passenger" departSpeed="max"/>
    <trip id="veh211" depart="3567.68" from="1462715258" to="391140866" departLane="best" type="veh_passenger" departSpeed="max"/>
    <trip id="veh212" depart="3584.59" from="23837911#4" to="1467263796#0" departLane="best" type="veh_passenger"/>
</routes>
