<?xml version="1.0" encoding="UTF-8"?>

<!-- generated on 2026-04-01T18:12:57.411283+01:00 by Eclipse SUMO netconvert v1_26_0+0818-8fa21e3b56a
<netconvertConfiguration xmlns:xsi="http://www.w3.org/2001/XMLSchema-instance" xsi:noNamespaceSchemaLocation="http://sumo.dlr.de/xsd/netconvertConfiguration.xsd">

    <input>
        <osm-files value="centro_final.osm"/>
    </input>

    <output>
        <output-file value="centro_final.net.xml"/>
    </output>

    <projection>
        <proj.utm value="true"/>
    </projection>

    <processing>
        <geometry.remove value="true"/>
    </processing>

    <edge_removal>
        <keep-edges.by-type value="highway.primary,highway.secondary,highway.tertiary"/>
        <remove-edges.isolated value="true"/>
    </edge_removal>

    <junctions>
        <junctions.join value="true"/>
    </junctions>

</netconvertConfiguration>
-->

<net version="1.20" junctionCornerDetail="5" limitTurnSpeed="5.50" xmlns:xsi="http://www.w3.org/2001/XMLSchema-instance" xsi:noNamespaceSchemaLocation="http://sumo.dlr.de/xsd/net_file.xsd">

    <location netOffset="-684264.60,-4927245.62" convBoundary="0.00,0.00,3979.24,3865.99" origBoundary="11.255594,44.474622,11.373807,44.517832" projParameter="+proj=utm +zone=32 +ellps=WGS84 +datum=WGS84 +units=m +no_defs"/>

    <type id="highway.primary" priority="12" numLanes="2" speed="27.78" disallow="tram rail_urban rail rail_electric rail_fast ship container cable_car subway aircraft wheelchair scooter drone" oneway="0"/>
    <type id="highway.secondary" priority="11" numLanes="1" speed="27.78" disallow="tram rail_urban rail rail_electric rail_fast ship container cable_car subway aircraft wheelchair scooter drone" oneway="0"/>
    <type id="highway.tertiary" priority="10" numLanes="1" speed="22.22" disallow="tram rail_urban rail rail_electric rail_fast ship container cable_car subway aircraft wheelchair scooter drone" oneway="0"/>

    <edge id=":10229176543_0" function="internal">
        <lane id=":10229176543_0_0" index="0" disallow="tram rail_urban rail rail_electric rail_fast ship container cable_car subway aircraft wheelchair scooter drone" speed="8.33" length="0.10" shape="2106.17,3394.21 2106.17,3394.21"/>
        <lane id=":10229176543_0_1" index="1" disallow="tram rail_urban rail rail_electric rail_fast ship container cable_car subway aircraft wheelchair scooter drone" speed="8.33" length="0.10" shape="2105.60,3391.06 2105.60,3391.06"/>
        <lane id=":10229176543_0_2" index="2" disallow="tram rail_urban rail rail_electric rail_fast ship container cable_car subway aircraft wheelchair scooter drone" speed="8.33" length="0.10" shape="2105.03,3387.91 2105.03,3387.91"/>
    </edge>
    <edge id=":10229176544_0" function="internal">
        <lane id=":10229176544_0_0" index="0" disallow="tram rail_urban rail rail_electric rail_fast ship container cable_car subway aircraft wheelchair scooter drone" speed="8.33" length="0.30" shape="2075.16,3381.43 2075.48,3381.37"/>
        <lane id=":10229176544_0_1" index="1" disallow="tram rail_urban rail rail_electric rail_fast ship container cable_car subway aircraft wheelchair scooter drone" speed="8.33" length="0.30" shape="2075.80,3384.57 2076.10,3384.51"/>
        <lane id=":10229176544_0_2" index="2" disallow="tram rail_urban rail rail_electric rail_fast ship container cable_car subway aircraft wheelchair scooter drone" speed="8.33" length="0.30" shape="2076.44,3387.71 2076.71,3387.65"/>
    </edge>
    <edge id=":10267927438_0" function="internal">
        <lane id=":10267927438_0_0" index="0" disallow="tram rail_urban rail rail_electric rail_fast ship container cable_car subway aircraft wheelchair scooter drone" speed="8.33" length="0.22" shape="3828.14,1276.59 3827.94,1276.69"/>
    </edge>
    <edge id=":10267927438_1" function="internal">
        <lane id=":10267927438_1_0" index="0" disallow="tram rail_urban rail rail_electric rail_fast ship container cable_car subway aircraft wheelchair scooter drone" speed="8.33" length="0.31" shape="3826.46,1273.85 3826.74,1273.71"/>
    </edge>
    <edge id=":10267927439_0" function="internal">
        <lane id=":10267927439_0_0" index="0" disallow="tram rail_urban rail rail_electric rail_fast ship container cable_car subway aircraft wheelchair scooter drone" speed="8.33" length="0.27" shape="3834.94,1255.01 3834.84,1254.76"/>
    </edge>
    <edge id=":10267927439_1" function="internal">
        <lane id=":10267927439_1_0" index="0" disallow="tram rail_urban rail rail_electric rail_fast ship container cable_car subway aircraft wheelchair scooter drone" speed="8.33" length="0.31" shape="3837.79,1253.51 3837.91,1253.80"/>
    </edge>
    <edge id=":10543767930_0" function="internal">
        <lane id=":10543767930_0_0" index="0" disallow="tram rail_urban rail rail_electric rail_fast ship container cable_car subway aircraft wheelchair scooter drone" speed="13.89" length="0.30" shape="3130.73,1175.18 3130.57,1174.94"/>
        <lane id=":10543767930_0_1" index="1" disallow="tram rail_urban rail rail_electric rail_fast ship container cable_car subway aircraft wheelchair scooter drone" speed="13.89" length="0.30" shape="3133.42,1173.46 3133.26,1173.20"/>
        <lane id=":10543767930_0_2" index="2" disallow="tram rail_urban rail rail_electric rail_fast ship container cable_car subway aircraft wheelchair scooter drone" speed="13.89" length="0.30" shape="3136.12,1171.73 3135.95,1171.47"/>
    </edge>
    <edge id=":10553319714_0" function="internal">
        <lane id=":10553319714_0_0" index="0" disallow="tram rail_urban rail rail_electric rail_fast ship container cable_car subway aircraft wheelchair scooter drone" speed="13.89" length="8.21" shape="3222.79,1369.80 3222.81,1367.39 3222.45,1365.74 3222.08,1364.09 3222.10,1361.68"/>
        <lane id=":10553319714_0_1" index="1" disallow="tram rail_urban rail rail_electric rail_fast ship container cable_car subway aircraft wheelchair scooter drone" speed="13.89" length="8.21" shape="3225.97,1370.16 3225.99,1367.75 3225.62,1366.10 3225.26,1364.44 3225.28,1362.03"/>
    </edge>
    <edge id=":10553319728_0" function="internal">
        <lane id=":10553319728_0_0" index="0" disallow="tram rail_urban rail rail_electric rail_fast ship container cable_car subway aircraft wheelchair scooter drone" speed="8.33" length="8.34" shape="3279.72,1478.96 3277.24,1479.04 3275.57,1479.87 3273.89,1480.73 3271.40,1480.86"/>
        <lane id=":10553319728_0_1" index="1" disallow="tram rail_urban rail rail_electric rail_fast ship container cable_car subway aircraft wheelchair scooter drone" speed="8.33" length="8.34" shape="3279.72,1478.96 3271.87,1477.70"/>
    </edge>
    <edge id=":10553319728_2" function="internal">
        <lane id=":10553319728_2_0" index="0" disallow="tram rail_urban rail rail_electric rail_fast ship container cable_car subway aircraft wheelchair scooter drone" speed="8.33" length="8.03" shape="3272.34,1474.53 3280.27,1475.81"/>
    </edge>
    <edge id=":10565195706_0" function="internal">
        <lane id=":10565195706_0_0" index="0" disallow="tram rail_urban rail rail_electric rail_fast ship container cable_car subway aircraft wheelchair scooter drone" speed="8.33" length="0.30" shape="3641.83,2041.91 3641.54,2042.00"/>
        <lane id=":10565195706_0_1" index="1" disallow="tram rail_urban rail rail_electric rail_fast ship container cable_car subway aircraft wheelchair scooter drone" speed="8.33" length="0.30" shape="3640.85,2038.87 3640.56,2038.96"/>
        <lane id=":10565195706_0_2" index="2" disallow="tram rail_urban rail rail_electric rail_fast ship container cable_car subway aircraft wheelchair scooter drone" speed="8.33" length="0.30" shape="3639.86,2035.82 3639.57,2035.91"/>
    </edge>
    <edge id=":10565195706_3" function="internal">
        <lane id=":10565195706_3_0" index="0" allow="bus bicycle" speed="8.33" length="0.30" shape="3638.59,2032.87 3638.87,2032.78"/>
    </edge>
    <edge id=":10762190844_0" function="internal">
        <lane id=":10762190844_0_0" index="0" disallow="tram rail_urban rail rail_electric rail_fast ship container cable_car subway aircraft wheelchair scooter drone" speed="8.33" length="8.00" shape="1813.72,3287.34 1811.42,3279.68"/>
    </edge>
    <edge id=":10762190844_1" function="internal">
        <lane id=":10762190844_1_0" index="0" disallow="tram rail_urban rail rail_electric rail_fast ship container cable_car subway aircraft wheelchair scooter drone" speed="8.33" length="8.40" shape="1814.48,3278.76 1815.67,3280.97 1817.16,3282.13 1818.66,3283.28 1819.85,3285.49"/>
        <lane id=":10762190844_1_1" index="1" disallow="tram rail_urban rail rail_electric rail_fast ship container cable_car subway aircraft wheelchair scooter drone" speed="8.33" length="8.40" shape="1814.48,3278.76 1816.79,3286.42"/>
    </edge>
    <edge id=":10873813995_0" function="internal">
        <lane id=":10873813995_0_0" index="0" disallow="tram rail_urban rail rail_electric rail_fast ship container cable_car subway aircraft wheelchair scooter drone" speed="8.33" length="0.31" shape="3001.85,2690.59 3001.55,2690.69"/>
    </edge>
    <edge id=":10873813995_1" function="internal">
        <lane id=":10873813995_1_0" index="0" allow="bus bicycle" speed="8.33" length="0.26" shape="3000.53,2687.66 3000.78,2687.57"/>
    </edge>
    <edge id=":10879024088_0" function="internal">
        <lane id=":10879024088_0_0" index="0" disallow="tram rail_urban rail rail_electric rail_fast ship container cable_car subway aircraft wheelchair scooter drone" speed="13.89" length="0.34" shape="1277.75,1575.13 1277.35,1575.33"/>
        <lane id=":10879024088_0_1" index="1" disallow="tram rail_urban rail rail_electric rail_fast ship container cable_car subway aircraft wheelchair scooter drone" speed="13.89" length="0.34" shape="1276.25,1572.30 1275.95,1572.45"/>
        <lane id=":10879024088_0_2" index="2" disallow="tram rail_urban rail rail_electric rail_fast ship container cable_car subway aircraft wheelchair scooter drone" speed="13.89" length="0.34" shape="1274.75,1569.47 1274.54,1569.58"/>
    </edge>
    <edge id=":10879024091_0" function="internal">
        <lane id=":10879024091_0_0" index="0" disallow="tram rail_urban rail rail_electric rail_fast ship container cable_car subway aircraft wheelchair scooter drone" speed="13.89" length="0.30" shape="1284.31,1546.40 1284.59,1546.25"/>
        <lane id=":10879024091_0_1" index="1" disallow="tram rail_urban rail rail_electric rail_fast ship container cable_car subway aircraft wheelchair scooter drone" speed="13.89" length="0.30" shape="1285.79,1549.24 1286.05,1549.10"/>
        <lane id=":10879024091_0_2" index="2" disallow="tram rail_urban rail rail_electric rail_fast ship container cable_car subway aircraft wheelchair scooter drone" speed="13.89" length="0.30" shape="1287.26,1552.08 1287.51,1551.95"/>
    </edge>
    <edge id=":10879440262_0" function="internal">
        <lane id=":10879440262_0_0" index="0" disallow="tram rail_urban rail rail_electric rail_fast ship container cable_car subway aircraft wheelchair scooter drone" speed="13.89" length="0.27" shape="750.33,2732.29 750.61,2732.50"/>
        <lane id=":10879440262_0_1" index="1" disallow="tram rail_urban rail rail_electric rail_fast ship container cable_car subway aircraft wheelchair scooter drone" speed="13.89" length="0.27" shape="748.49,2734.91 748.71,2735.07"/>
        <lane id=":10879440262_0_2" index="2" disallow="tram rail_urban rail rail_electric rail_fast ship container cable_car subway aircraft wheelchair scooter drone" speed="13.89" length="0.27" shape="746.65,2737.53 746.81,2737.65"/>
    </edge>
    <edge id=":10881890139_0" function="internal">
        <lane id=":10881890139_0_0" index="0" disallow="tram rail_urban rail rail_electric rail_fast ship container cable_car subway aircraft wheelchair scooter drone" speed="8.33" length="0.29" shape="3631.94,2045.10 3631.68,2045.19"/>
        <lane id=":10881890139_0_1" index="1" disallow="tram rail_urban rail rail_electric rail_fast ship container cable_car subway aircraft wheelchair scooter drone" speed="8.33" length="0.29" shape="3630.96,2042.06 3630.68,2042.15"/>
        <lane id=":10881890139_0_2" index="2" disallow="tram rail_urban rail rail_electric rail_fast ship container cable_car subway aircraft wheelchair scooter drone" speed="8.33" length="0.29" shape="3629.98,2039.01 3629.69,2039.11"/>
    </edge>
    <edge id=":10881890139_3" function="internal">
        <lane id=":10881890139_3_0" index="0" allow="bus bicycle" speed="8.33" length="0.32" shape="3628.70,2036.06 3629.00,2035.97"/>
    </edge>
    <edge id=":10901430832_0" function="internal">
        <lane id=":10901430832_0_0" index="0" disallow="tram rail_urban rail rail_electric rail_fast ship container cable_car subway aircraft wheelchair scooter drone" speed="5.70" length="8.78" shape="2185.22,3352.45 2185.22,3355.08 2186.06,3356.72 2187.73,3357.36 2190.22,3357.02"/>
    </edge>
    <edge id=":10901430832_1" function="internal">
        <lane id=":10901430832_1_0" index="0" disallow="tram rail_urban rail rail_electric rail_fast ship container cable_car subway aircraft wheelchair scooter drone" speed="8.33" length="16.04" shape="2185.22,3352.45 2184.76,3356.35 2184.46,3360.46 2184.49,3364.56 2185.00,3368.42"/>
    </edge>
    <edge id=":10901430832_2" function="internal">
        <lane id=":10901430832_2_0" index="0" disallow="tram rail_urban rail rail_electric rail_fast ship container cable_car subway aircraft wheelchair scooter drone" speed="8.33" length="16.93" shape="2179.91,3352.27 2185.00,3368.42"/>
    </edge>
    <edge id=":10901430832_3" function="internal">
        <lane id=":10901430832_3_0" index="0" disallow="tram rail_urban rail rail_electric rail_fast ship container cable_car subway aircraft wheelchair scooter drone" speed="11.11" length="13.66" shape="2176.80,3359.06 2180.75,3358.28 2183.53,3358.10 2186.30,3357.89 2190.22,3357.02"/>
        <lane id=":10901430832_3_1" index="1" disallow="tram rail_urban rail rail_electric rail_fast ship container cable_car subway aircraft wheelchair scooter drone" speed="11.11" length="13.66" shape="2177.62,3362.16 2181.58,3361.37 2184.37,3361.19 2187.15,3360.97 2191.09,3360.10"/>
        <lane id=":10901430832_3_2" index="2" disallow="tram rail_urban rail rail_electric rail_fast ship container cable_car subway aircraft wheelchair scooter drone" speed="11.11" length="13.66" shape="2178.43,3365.25 2182.41,3364.46 2185.21,3364.27 2188.00,3364.06 2191.96,3363.18"/>
    </edge>
    <edge id=":10901430832_6" function="internal">
        <lane id=":10901430832_6_0" index="0" disallow="tram rail_urban rail rail_electric rail_fast ship container cable_car subway aircraft wheelchair scooter drone" speed="5.41" length="6.10" shape="2179.25,3368.35 2181.64,3367.81 2183.40,3367.65 2184.52,3367.85 2185.00,3368.42"/>
    </edge>
    <edge id=":10916129434_0" function="internal">
        <lane id=":10916129434_0_0" index="0" disallow="tram rail_urban rail rail_electric rail_fast ship container cable_car subway aircraft wheelchair scooter drone" speed="8.33" length="9.11" shape="2449.15,1247.41 2446.96,1245.83 2445.40,1244.83 2443.72,1244.04 2441.20,1243.09"/>
    </edge>
    <edge id=":10916129434_1" function="internal">
        <lane id=":10916129434_1_0" index="0" disallow="tram rail_urban rail rail_electric rail_fast ship container cable_car subway aircraft wheelchair scooter drone" speed="8.33" length="7.24" shape="2449.15,1247.41 2447.50,1246.09 2446.57,1244.95 2445.93,1243.59 2445.17,1241.58"/>
    </edge>
    <edge id=":10917839240_0" function="internal">
        <lane id=":10917839240_0_0" index="0" disallow="tram rail_urban rail rail_electric rail_fast ship container cable_car subway aircraft wheelchair scooter drone" speed="8.33" length="0.29" shape="1031.71,2580.50 1031.97,2580.38"/>
    </edge>
    <edge id=":10917839241_0" function="internal">
        <lane id=":10917839241_0_0" index="0" disallow="tram rail_urban rail rail_electric rail_fast ship container cable_car subway aircraft wheelchair scooter drone" speed="8.33" length="0.30" shape="1083.81,2556.84 1084.09,2556.72"/>
    </edge>
    <edge id=":10982331568_0" function="internal">
        <lane id=":10982331568_0_0" index="0" disallow="tram rail_urban rail rail_electric rail_fast ship container cable_car subway aircraft wheelchair scooter drone" speed="8.33" length="0.31" shape="2955.94,1420.22 2955.63,1420.19"/>
    </edge>
    <edge id=":10982331568_1" function="internal">
        <lane id=":10982331568_1_0" index="0" disallow="tram rail_urban rail rail_electric rail_fast ship container cable_car subway aircraft wheelchair scooter drone" speed="8.33" length="0.13" shape="2956.17,1417.04 2956.21,1417.05 2956.23,1417.07 2956.26,1417.08 2956.29,1417.09"/>
    </edge>
    <edge id=":10982331588_0" function="internal">
        <lane id=":10982331588_0_0" index="0" disallow="tram rail_urban rail rail_electric rail_fast ship container cable_car subway aircraft wheelchair scooter drone" speed="8.33" length="0.24" shape="3011.34,1429.70 3011.27,1429.69 3011.22,1429.67 3011.18,1429.65 3011.11,1429.64"/>
    </edge>
    <edge id=":10982331588_1" function="internal">
        <lane id=":10982331588_1_0" index="0" disallow="tram rail_urban rail rail_electric rail_fast ship container cable_car subway aircraft wheelchair scooter drone" speed="8.33" length="0.34" shape="3011.57,1426.52 3011.67,1426.53 3011.74,1426.54 3011.80,1426.54 3011.91,1426.55"/>
    </edge>
    <edge id=":11016418908_0" function="internal">
        <lane id=":11016418908_0_0" index="0" disallow="tram rail_urban rail rail_electric rail_fast ship container cable_car subway aircraft wheelchair scooter drone" speed="8.33" length="0.30" shape="3692.55,2568.93 3692.51,2569.23"/>
    </edge>
    <edge id=":11016418908_1" function="internal">
        <lane id=":11016418908_1_0" index="0" disallow="tram rail_urban rail rail_electric rail_fast ship container cable_car subway aircraft wheelchair scooter drone" speed="8.33" length="0.30" shape="3689.33,2568.85 3689.37,2568.55"/>
    </edge>
    <edge id=":11017753015_0" function="internal">
        <lane id=":11017753015_0_0" index="0" disallow="tram rail_urban rail rail_electric rail_fast ship container cable_car subway aircraft wheelchair scooter drone" speed="8.33" length="5.81" width="4.00" shape="1065.50,3472.53 1067.00,3473.38 1067.94,3474.27 1068.92,3474.93 1070.52,3475.09"/>
    </edge>
    <edge id=":11017753015_1" function="internal">
        <lane id=":11017753015_1_0" index="0" disallow="tram rail_urban rail rail_electric rail_fast ship container cable_car subway aircraft wheelchair scooter drone" speed="8.33" length="5.41" width="4.00" shape="1065.47,3476.90 1066.97,3476.33 1067.96,3475.79 1068.97,3475.36 1070.52,3475.09"/>
    </edge>
    <edge id=":11084160912_0" function="internal">
        <lane id=":11084160912_0_0" index="0" disallow="tram rail_urban rail rail_electric rail_fast ship container cable_car subway aircraft wheelchair scooter drone" speed="8.33" length="0.22" shape="3253.71,1321.23 3253.49,1321.25"/>
    </edge>
    <edge id=":11085643565_0" function="internal">
        <lane id=":11085643565_0_0" index="0" disallow="tram rail_urban rail rail_electric rail_fast ship container cable_car subway aircraft wheelchair scooter drone" speed="13.89" length="0.30" shape="868.78,2188.58 868.70,2188.89"/>
        <lane id=":11085643565_0_1" index="1" disallow="tram rail_urban rail rail_electric rail_fast ship container cable_car subway aircraft wheelchair scooter drone" speed="13.89" length="0.30" shape="865.68,2187.79 865.60,2188.07"/>
        <lane id=":11085643565_0_2" index="2" disallow="tram rail_urban rail rail_electric rail_fast ship container cable_car subway aircraft wheelchair scooter drone" speed="13.89" length="0.30" shape="862.58,2186.99 862.51,2187.26"/>
    </edge>
    <edge id=":11093920184_0" function="internal">
        <lane id=":11093920184_0_0" index="0" allow="emergency authority bus bicycle" speed="8.33" length="0.31" shape="986.02,1750.75 985.71,1750.74"/>
    </edge>
    <edge id=":11093920184_1" function="internal">
        <lane id=":11093920184_1_0" index="0" allow="emergency authority bus bicycle" speed="8.33" length="0.24" shape="985.90,1747.54 986.14,1747.56"/>
    </edge>
    <edge id=":11163681833_0" function="internal">
        <lane id=":11163681833_0_0" index="0" disallow="tram rail_urban rail rail_electric rail_fast ship container cable_car subway aircraft wheelchair scooter drone" speed="8.33" length="8.41" shape="1460.98,3146.87 1458.73,3147.99 1457.52,3149.45 1456.32,3150.91 1454.06,3152.02"/>
        <lane id=":11163681833_0_1" index="1" disallow="tram rail_urban rail rail_electric rail_fast ship container cable_car subway aircraft wheelchair scooter drone" speed="8.33" length="8.41" shape="1460.98,3146.87 1453.25,3148.92"/>
    </edge>
    <edge id=":11163681833_2" function="internal">
        <lane id=":11163681833_2_0" index="0" disallow="tram rail_urban rail rail_electric rail_fast ship container cable_car subway aircraft wheelchair scooter drone" speed="8.33" length="7.99" shape="1452.44,3145.83 1460.15,3143.78"/>
    </edge>
    <edge id=":11250727404_0" function="internal">
        <lane id=":11250727404_0_0" index="0" disallow="tram rail_urban rail rail_electric rail_fast ship container cable_car subway aircraft wheelchair scooter drone" speed="5.32" length="8.14" shape="737.43,2696.45 737.44,2698.39 738.38,2699.40 740.26,2699.48 743.07,2698.63"/>
    </edge>
    <edge id=":11250727404_1" function="internal">
        <lane id=":11250727404_1_0" index="0" disallow="tram rail_urban rail rail_electric rail_fast ship container cable_car subway aircraft wheelchair scooter drone" speed="13.89" length="29.40" shape="737.43,2696.45 736.21,2705.74 736.35,2713.57 737.85,2719.93 740.70,2724.82"/>
        <lane id=":11250727404_1_1" index="1" disallow="tram rail_urban rail rail_electric rail_fast ship container cable_car subway aircraft wheelchair scooter drone" speed="13.89" length="29.91" shape="734.28,2695.85 733.03,2705.14 733.04,2713.09 734.31,2719.71 736.84,2724.99"/>
    </edge>
    <edge id=":11250727404_3" function="internal">
        <lane id=":11250727404_3_0" index="0" disallow="tram rail_urban rail rail_electric rail_fast ship container cable_car subway aircraft wheelchair scooter drone" speed="13.89" length="29.98" shape="731.14,2695.26 729.47,2705.44 728.37,2713.82 727.47,2720.32 726.38,2724.85"/>
    </edge>
    <edge id=":11250727404_4" function="internal">
        <lane id=":11250727404_4_0" index="0" disallow="tram rail_urban rail rail_electric rail_fast ship container cable_car subway aircraft wheelchair scooter drone" speed="8.33" length="22.48" shape="725.05,2711.99 728.82,2708.80 733.75,2704.80 738.83,2701.05 743.07,2698.63"/>
    </edge>
    <edge id=":11250727404_5" function="internal">
        <lane id=":11250727404_5_0" index="0" disallow="tram rail_urban rail rail_electric rail_fast ship container cable_car subway aircraft wheelchair scooter drone" speed="8.62" length="1.95" shape="725.05,2711.99 726.47,2712.22 726.85,2712.57"/>
        <lane id=":11250727404_5_1" index="1" disallow="tram rail_urban rail rail_electric rail_fast ship container cable_car subway aircraft wheelchair scooter drone" speed="7.92" length="1.78" shape="725.05,2711.99 726.24,2713.30"/>
    </edge>
    <edge id=":11250727404_7" function="internal">
        <lane id=":11250727404_7_0" index="0" disallow="tram rail_urban rail rail_electric rail_fast ship container cable_car subway aircraft wheelchair scooter drone" speed="8.62" length="15.99" shape="726.85,2712.57 728.91,2714.47 732.36,2718.72 736.84,2724.99"/>
        <lane id=":11250727404_7_1" index="0" disallow="tram rail_urban rail rail_electric rail_fast ship container cable_car subway aircraft wheelchair scooter drone" speed="7.92" length="13.72" shape="726.24,2713.30 726.56,2713.65 729.18,2718.01 731.75,2722.65 733.13,2725.15"/>
    </edge>
    <edge id=":1130844942_0" function="internal">
        <lane id=":1130844942_0_0" index="0" allow="emergency authority bus bicycle" speed="8.33" length="6.39" shape="3150.12,1133.28 3149.03,1134.79 3148.59,1136.05 3148.16,1137.31 3147.08,1138.82"/>
    </edge>
    <edge id=":1130844956_0" function="internal">
        <lane id=":1130844956_0_0" index="0" disallow="tram rail_urban rail rail_electric rail_fast ship container cable_car subway aircraft wheelchair scooter drone" speed="13.89" length="0.30" shape="3247.89,1307.75 3247.86,1308.07"/>
        <lane id=":1130844956_0_1" index="1" disallow="tram rail_urban rail rail_electric rail_fast ship container cable_car subway aircraft wheelchair scooter drone" speed="13.89" length="0.30" shape="3244.72,1307.37 3244.68,1307.67"/>
        <lane id=":1130844956_0_2" index="2" disallow="tram rail_urban rail rail_electric rail_fast ship container cable_car subway aircraft wheelchair scooter drone" speed="13.89" length="0.30" shape="3241.54,1306.99 3241.51,1307.26"/>
    </edge>
    <edge id=":11381162810_0" function="internal">
        <lane id=":11381162810_0_0" index="0" disallow="tram rail_urban rail rail_electric rail_fast ship container cable_car subway aircraft wheelchair scooter drone" speed="13.89" length="0.45" shape="3075.36,2704.97 3075.46,2704.77 3075.53,2704.64 3075.60,2704.51 3075.72,2704.32"/>
        <lane id=":11381162810_0_1" index="1" disallow="tram rail_urban rail rail_electric rail_fast ship container cable_car subway aircraft wheelchair scooter drone" speed="13.89" length="0.45" shape="3078.23,2706.38 3078.29,2706.26 3078.33,2706.18 3078.38,2706.10 3078.45,2705.99"/>
        <lane id=":11381162810_0_2" index="2" disallow="tram rail_urban rail rail_electric rail_fast ship container cable_car subway aircraft wheelchair scooter drone" speed="13.89" length="0.45" shape="3081.10,2707.79 3081.12,2707.75 3081.14,2707.72 3081.15,2707.70 3081.18,2707.66"/>
    </edge>
    <edge id=":11381162820_0" function="internal">
        <lane id=":11381162820_0_0" index="0" disallow="tram rail_urban rail rail_electric rail_fast ship container cable_car subway aircraft wheelchair scooter drone" speed="8.33" length="0.10" shape="3100.29,2709.73 3100.29,2709.73"/>
    </edge>
    <edge id=":11381162822_0" function="internal">
        <lane id=":11381162822_0_0" index="0" disallow="tram rail_urban rail rail_electric rail_fast ship container cable_car subway aircraft wheelchair scooter drone" speed="13.89" length="0.28" shape="3095.44,2696.12 3095.40,2696.43"/>
        <lane id=":11381162822_0_1" index="1" disallow="tram rail_urban rail rail_electric rail_fast ship container cable_car subway aircraft wheelchair scooter drone" speed="13.89" length="0.28" shape="3092.25,2695.80 3092.22,2696.05"/>
    </edge>
    <edge id=":11381162830_0" function="internal">
        <lane id=":11381162830_0_0" index="0" disallow="tram rail_urban rail rail_electric rail_fast ship container cable_car subway aircraft wheelchair scooter drone" speed="8.33" length="0.10" shape="3102.36,2710.80 3102.36,2710.80"/>
    </edge>
    <edge id=":11390356025_0" function="internal">
        <lane id=":11390356025_0_0" index="0" disallow="tram rail_urban rail rail_electric rail_fast ship container cable_car subway aircraft wheelchair scooter drone" speed="8.33" length="0.59" shape="3306.93,2788.43 3306.76,2788.99"/>
    </edge>
    <edge id=":11390356025_1" function="internal">
        <lane id=":11390356025_1_0" index="0" allow="bus bicycle" speed="8.33" length="0.49" shape="3303.73,2788.15 3303.82,2787.67"/>
    </edge>
    <edge id=":11472873024_0" function="internal">
        <lane id=":11472873024_0_0" index="0" disallow="tram rail_urban rail rail_electric rail_fast ship container cable_car subway aircraft wheelchair scooter drone" speed="13.89" length="0.25" shape="3467.85,3497.77 3468.04,3497.52"/>
        <lane id=":11472873024_0_1" index="1" disallow="tram rail_urban rail rail_electric rail_fast ship container cable_car subway aircraft wheelchair scooter drone" speed="13.89" length="0.25" shape="3470.43,3499.67 3470.54,3499.52"/>
    </edge>
    <edge id=":11472873025_0" function="internal">
        <lane id=":11472873025_0_0" index="0" disallow="tram rail_urban rail rail_electric rail_fast ship container cable_car subway aircraft wheelchair scooter drone" speed="13.89" length="0.10" shape="3483.17,3508.53 3483.17,3508.53"/>
        <lane id=":11472873025_0_1" index="1" disallow="tram rail_urban rail rail_electric rail_fast ship container cable_car subway aircraft wheelchair scooter drone" speed="13.89" length="0.10" shape="3480.59,3506.63 3480.59,3506.63"/>
    </edge>
    <edge id=":11472873033_0" function="internal">
        <lane id=":11472873033_0_0" index="0" disallow="tram rail_urban rail rail_electric rail_fast ship container cable_car subway aircraft wheelchair scooter drone" speed="13.89" length="0.30" shape="3441.73,3565.21 3441.55,3565.45"/>
        <lane id=":11472873033_0_1" index="1" disallow="tram rail_urban rail rail_electric rail_fast ship container cable_car subway aircraft wheelchair scooter drone" speed="13.89" length="0.30" shape="3439.14,3563.33 3438.97,3563.57"/>
    </edge>
    <edge id=":11472873035_0" function="internal">
        <lane id=":11472873035_0_0" index="0" disallow="tram rail_urban rail rail_electric rail_fast ship container cable_car subway aircraft wheelchair scooter drone" speed="13.89" length="0.27" shape="3428.19,3555.82 3428.35,3555.60"/>
    </edge>
    <edge id=":11472873046_0" function="internal">
        <lane id=":11472873046_0_0" index="0" disallow="tram rail_urban rail rail_electric rail_fast ship container cable_car subway aircraft wheelchair scooter drone" speed="13.89" length="0.29" shape="3583.42,3369.13 3583.40,3369.17 3583.38,3369.19 3583.37,3369.22 3583.34,3369.25"/>