<configuration>
    <input>
        <net-file value="centro_final.net.xml"/>
        <route-files value="routes.rou.xml"/>
    </input>
</configuration>