<edges>
    <edge id="n2c" from="n" to="center" numLanes="2" speed="13.9"/>
    <edge id="c2n" from="center" to="n" numLanes="2" speed="13.9"/>

    <edge id="s2c" from="s" to="center" numLanes="2" speed="13.9"/>
    <edge id="c2s" from="center" to="s" numLanes="2" speed="13.9"/>

    <edge id="e2c" from="e" to="center" numLanes="2" speed="13.9"/>
    <edge id="c2e" from="center" to="e" numLanes="2" speed="13.9"/>

    <edge id="w2c" from="w" to="center" numLanes="2" speed="13.9"/>
    <edge id="c2w" from="center" to="w" numLanes="2" speed="13.9"/>
</edges>