<edges>
    <!-- === INCROCIO 1 === -->
    <!-- Nord -->
    <edge id="n1_c1"  from="n1"      to="center1" numLanes="2" speed="13.9"/>
    <edge id="c1_n1"  from="center1" to="n1"      numLanes="2" speed="13.9"/>
    <!-- Sud -->
    <edge id="s1_c1"  from="s1"      to="center1" numLanes="2" speed="13.9"/>
    <edge id="c1_s1"  from="center1" to="s1"      numLanes="2" speed="13.9"/>
    <!-- Ovest -->
    <edge id="w1_c1"  from="w1"      to="center1" numLanes="2" speed="13.9"/>
    <edge id="c1_w1"  from="center1" to="w1"      numLanes="2" speed="13.9"/>

    <!-- === TRATTO DI COLLEGAMENTO tra i due incroci === -->
    <edge id="c1_c2"  from="center1" to="center2" numLanes="2" speed="13.9"/>
    <edge id="c2_c1"  from="center2" to="center1" numLanes="2" speed="13.9"/>

    <!-- === INCROCIO 2 === -->
    <!-- Nord -->
    <edge id="n2_c2"  from="n2"      to="center2" numLanes="2" speed="13.9"/>
    <edge id="c2_n2"  from="center2" to="n2"      numLanes="2" speed="13.9"/>
    <!-- Sud -->
    <edge id="s2_c2"  from="s2"      to="center2" numLanes="2" speed="13.9"/>
    <edge id="c2_s2"  from="center2" to="s2"      numLanes="2" speed="13.9"/>
    <!-- Est -->
    <edge id="e2_c2"  from="e2"      to="center2" numLanes="2" speed="13.9"/>
    <edge id="c2_e2"  from="center2" to="e2"      numLanes="2" speed="13.9"/>
</edges>
