<nodes>
    <node id="n" x="0" y="200"/>
    <node id="s" x="0" y="-200"/>
    <node id="e" x="200" y="0"/>
    <node id="w" x="-200" y="0"/>

    <node id="center" x="0" y="0" type="traffic_light" tlType="static"/>
</nodes>