<?xml version="1.0" encoding="UTF-8"?>

<!-- generated on 2026-03-30T12:41:10.431357+01:00 by Eclipse SUMO netconvert 1.26.0
<netconvertConfiguration xmlns:xsi="http://www.w3.org/2001/XMLSchema-instance" xsi:noNamespaceSchemaLocation="http://sumo.dlr.de/xsd/netconvertConfiguration.xsd">

    <input>
        <node-files value="nodes.nod.xml"/>
        <edge-files value="edges.edg.xml"/>
    </input>

    <output>
        <output-file value="cross.net.xml"/>
    </output>

    <tls_building>
        <tls.guess value="true"/>
    </tls_building>

</netconvertConfiguration>
-->

<net version="1.20" junctionCornerDetail="5" limitTurnSpeed="5.50" xmlns:xsi="http://www.w3.org/2001/XMLSchema-instance" xsi:noNamespaceSchemaLocation="http://sumo.dlr.de/xsd/net_file.xsd">

    <location netOffset="400.00,200.00" convBoundary="0.00,0.00,800.00,400.00" origBoundary="-400.00,-200.00,400.00,200.00" projParameter="!"/>

    <edge id=":center1_0" function="internal">
        <lane id=":center1_0_0" index="0" speed="6.51" length="9.03" shape="195.20,210.40 194.85,207.95 193.80,206.20 192.05,205.15 189.60,204.80"/>
    </edge>
    <edge id=":center1_1" function="internal">
        <lane id=":center1_1_0" index="0" speed="13.90" length="20.80" shape="195.20,210.40 195.20,189.60"/>
        <lane id=":center1_1_1" index="1" speed="13.90" length="20.80" shape="198.40,210.40 198.40,189.60"/>
    </edge>
    <edge id=":center1_3" function="internal">
        <lane id=":center1_3_0" index="0" speed="9.26" length="5.01" shape="198.40,210.40 199.11,205.44"/>
    </edge>
    <edge id=":center1_4" function="internal">
        <lane id=":center1_4_0" index="0" speed="3.65" length="1.44" shape="198.40,210.40 199.20,209.20"/>
    </edge>
    <edge id=":center1_20" function="internal">
        <lane id=":center1_20_0" index="0" speed="9.26" length="14.34" shape="199.11,205.44 199.15,205.15 201.40,201.40 205.15,199.15 210.40,198.40"/>
    </edge>
    <edge id=":center1_21" function="internal">
        <lane id=":center1_21_0" index="0" speed="3.65" length="3.23" shape="199.20,209.20 200.00,208.80 200.80,209.20 201.60,210.40"/>
    </edge>
    <edge id=":center1_5" function="internal">
        <lane id=":center1_5_0" index="0" speed="6.51" length="9.03" shape="210.40,204.80 207.95,205.15 206.20,206.20 205.15,207.95 204.80,210.40"/>
    </edge>
    <edge id=":center1_6" function="internal">
        <lane id=":center1_6_0" index="0" speed="13.90" length="20.80" shape="210.40,204.80 189.60,204.80"/>
        <lane id=":center1_6_1" index="1" speed="13.90" length="20.80" shape="210.40,201.60 189.60,201.60"/>
    </edge>
    <edge id=":center1_8" function="internal">
        <lane id=":center1_8_0" index="0" speed="9.26" length="5.01" shape="210.40,201.60 205.44,200.89"/>
    </edge>
    <edge id=":center1_9" function="internal">
        <lane id=":center1_9_0" index="0" speed="3.65" length="1.44" shape="210.40,201.60 209.20,200.80"/>
    </edge>
    <edge id=":center1_22" function="internal">
        <lane id=":center1_22_0" index="0" speed="9.26" length="14.34" shape="205.44,200.89 205.15,200.85 201.40,198.60 199.15,194.85 198.40,189.60"/>
    </edge>
    <edge id=":center1_23" function="internal">
        <lane id=":center1_23_0" index="0" speed="3.65" length="3.23" shape="209.20,200.80 208.80,200.00 209.20,199.20 210.40,198.40"/>
    </edge>
    <edge id=":center1_10" function="internal">
        <lane id=":center1_10_0" index="0" speed="6.51" length="9.03" shape="204.80,189.60 205.15,192.05 206.20,193.80 207.95,194.85 210.40,195.20"/>
    </edge>
    <edge id=":center1_11" function="internal">
        <lane id=":center1_11_0" index="0" speed="13.90" length="20.80" shape="204.80,189.60 204.80,210.40"/>
        <lane id=":center1_11_1" index="1" speed="13.90" length="20.80" shape="201.60,189.60 201.60,210.40"/>
    </edge>
    <edge id=":center1_13" function="internal">
        <lane id=":center1_13_0" index="0" speed="9.26" length="5.01" shape="201.60,189.60 200.89,194.56"/>
    </edge>
    <edge id=":center1_14" function="internal">
        <lane id=":center1_14_0" index="0" speed="3.65" length="1.44" shape="201.60,189.60 200.80,190.80"/>
    </edge>
    <edge id=":center1_24" function="internal">
        <lane id=":center1_24_0" index="0" speed="9.26" length="14.34" shape="200.89,194.56 200.85,194.85 198.60,198.60 194.85,200.85 189.60,201.60"/>
    </edge>
    <edge id=":center1_25" function="internal">
        <lane id=":center1_25_0" index="0" speed="3.65" length="3.23" shape="200.80,190.80 200.00,191.20 199.20,190.80 198.40,189.60"/>
    </edge>
    <edge id=":center1_15" function="internal">
        <lane id=":center1_15_0" index="0" speed="6.51" length="9.03" shape="189.60,195.20 192.05,194.85 193.80,193.80 194.85,192.05 195.20,189.60"/>
    </edge>
    <edge id=":center1_16" function="internal">
        <lane id=":center1_16_0" index="0" speed="13.90" length="20.80" shape="189.60,195.20 210.40,195.20"/>
        <lane id=":center1_16_1" index="1" speed="13.90" length="20.80" shape="189.60,198.40 210.40,198.40"/>
    </edge>
    <edge id=":center1_18" function="internal">
        <lane id=":center1_18_0" index="0" speed="9.26" length="5.01" shape="189.60,198.40 194.56,199.11"/>
    </edge>
    <edge id=":center1_19" function="internal">
        <lane id=":center1_19_0" index="0" speed="3.65" length="1.44" shape="189.60,198.40 190.80,199.20"/>
    </edge>
    <edge id=":center1_26" function="internal">
        <lane id=":center1_26_0" index="0" speed="9.26" length="14.34" shape="194.56,199.11 194.85,199.15 198.60,201.40 200.85,205.15 201.60,210.40"/>
    </edge>
    <edge id=":center1_27" function="internal">
        <lane id=":center1_27_0" index="0" speed="3.65" length="3.23" shape="190.80,199.20 191.20,200.00 190.80,200.80 189.60,201.60"/>
    </edge>
    <edge id=":center2_0" function="internal">
        <lane id=":center2_0_0" index="0" speed="6.51" length="9.03" shape="595.20,210.40 594.85,207.95 593.80,206.20 592.05,205.15 589.60,204.80"/>
    </edge>
    <edge id=":center2_1" function="internal">
        <lane id=":center2_1_0" index="0" speed="13.90" length="20.80" shape="595.20,210.40 595.20,189.60"/>
        <lane id=":center2_1_1" index="1" speed="13.90" length="20.80" shape="598.40,210.40 598.40,189.60"/>
    </edge>
    <edge id=":center2_3" function="internal">
        <lane id=":center2_3_0" index="0" speed="9.26" length="5.01" shape="598.40,210.40 599.11,205.44"/>
    </edge>
    <edge id=":center2_4" function="internal">
        <lane id=":center2_4_0" index="0" speed="3.65" length="1.44" shape="598.40,210.40 599.20,209.20"/>
    </edge>
    <edge id=":center2_20" function="internal">
        <lane id=":center2_20_0" index="0" speed="9.26" length="14.34" shape="599.11,205.44 599.15,205.15 601.40,201.40 605.15,199.15 610.40,198.40"/>
    </edge>
    <edge id=":center2_21" function="internal">
        <lane id=":center2_21_0" index="0" speed="3.65" length="3.23" shape="599.20,209.20 600.00,208.80 600.80,209.20 601.60,210.40"/>
    </edge>
    <edge id=":center2_5" function="internal">
        <lane id=":center2_5_0" index="0" speed="6.51" length="9.03" shape="610.40,204.80 607.95,205.15 606.20,206.20 605.15,207.95 604.80,210.40"/>
    </edge>
    <edge id=":center2_6" function="internal">
        <lane id=":center2_6_0" index="0" speed="13.90" length="20.80" shape="610.40,204.80 589.60,204.80"/>
        <lane id=":center2_6_1" index="1" speed="13.90" length="20.80" shape="610.40,201.60 589.60,201.60"/>
    </edge>
    <edge id=":center2_8" function="internal">
        <lane id=":center2_8_0" index="0" speed="9.26" length="5.01" shape="610.40,201.60 605.44,200.89"/>
    </edge>
    <edge id=":center2_9" function="internal">
        <lane id=":center2_9_0" index="0" speed="3.65" length="1.44" shape="610.40,201.60 609.20,200.80"/>
    </edge>
    <edge id=":center2_22" function="internal">
        <lane id=":center2_22_0" index="0" speed="9.26" length="14.34" shape="605.44,200.89 605.15,200.85 601.40,198.60 599.15,194.85 598.40,189.60"/>
    </edge>
    <edge id=":center2_23" function="internal">
        <lane id=":center2_23_0" index="0" speed="3.65" length="3.23" shape="609.20,200.80 608.80,200.00 609.20,199.20 610.40,198.40"/>
    </edge>
    <edge id=":center2_10" function="internal">
        <lane id=":center2_10_0" index="0" speed="6.51" length="9.03" shape="604.80,189.60 605.15,192.05 606.20,193.80 607.95,194.85 610.40,195.20"/>
    </edge>
    <edge id=":center2_11" function="internal">
        <lane id=":center2_11_0" index="0" speed="13.90" length="20.80" shape="604.80,189.60 604.80,210.40"/>
        <lane id=":center2_11_1" index="1" speed="13.90" length="20.80" shape="601.60,189.60 601.60,210.40"/>
    </edge>
    <edge id=":center2_13" function="internal">
        <lane id=":center2_13_0" index="0" speed="9.26" length="5.01" shape="601.60,189.60 600.89,194.56"/>
    </edge>
    <edge id=":center2_14" function="internal">
        <lane id=":center2_14_0" index="0" speed="3.65" length="1.44" shape="601.60,189.60 600.80,190.80"/>
    </edge>
    <edge id=":center2_24" function="internal">
        <lane id=":center2_24_0" index="0" speed="9.26" length="14.34" shape="600.89,194.56 600.85,194.85 598.60,198.60 594.85,200.85 589.60,201.60"/>
    </edge>
    <edge id=":center2_25" function="internal">
        <lane id=":center2_25_0" index="0" speed="3.65" length="3.23" shape="600.80,190.80 600.00,191.20 599.20,190.80 598.40,189.60"/>
    </edge>
    <edge id=":center2_15" function="internal">
        <lane id=":center2_15_0" index="0" speed="6.51" length="9.03" shape="589.60,195.20 592.05,194.85 593.80,193.80 594.85,192.05 595.20,189.60"/>
    </edge>
    <edge id=":center2_16" function="internal">
        <lane id=":center2_16_0" index="0" speed="13.90" length="20.80" shape="589.60,195.20 610.40,195.20"/>
        <lane id=":center2_16_1" index="1" speed="13.90" length="20.80" shape="589.60,198.40 610.40,198.40"/>
    </edge>
    <edge id=":center2_18" function="internal">
        <lane id=":center2_18_0" index="0" speed="9.26" length="5.01" shape="589.60,198.40 594.56,199.11"/>
    </edge>
    <edge id=":center2_19" function="internal">
        <lane id=":center2_19_0" index="0" speed="3.65" length="1.44" shape="589.60,198.40 590.80,199.20"/>
    </edge>
    <edge id=":center2_26" function="internal">
        <lane id=":center2_26_0" index="0" speed="9.26" length="14.34" shape="594.56,199.11 594.85,199.15 598.60,201.40 600.85,205.15 601.60,210.40"/>
    </edge>
    <edge id=":center2_27" function="internal">
        <lane id=":center2_27_0" index="0" speed="3.65" length="3.23" shape="590.80,199.20 591.20,200.00 590.80,200.80 589.60,201.60"/>
    </edge>
    <edge id=":e2_0" function="internal">
        <lane id=":e2_0_0" index="0" speed="3.65" length="4.67" shape="800.00,198.40 801.20,199.20 801.60,200.00 801.20,200.80 800.00,201.60"/>
    </edge>
    <edge id=":n1_0" function="internal">
        <lane id=":n1_0_0" index="0" speed="3.65" length="4.67" shape="201.60,400.00 200.80,401.20 200.00,401.60 199.20,401.20 198.40,400.00"/>
    </edge>
    <edge id=":n2_0" function="internal">
        <lane id=":n2_0_0" index="0" speed="3.65" length="4.67" shape="601.60,400.00 600.80,401.20 600.00,401.60 599.20,401.20 598.40,400.00"/>
    </edge>
    <edge id=":s1_0" function="internal">
        <lane id=":s1_0_0" index="0" speed="3.65" length="4.67" shape="198.40,0.00 199.20,-1.20 200.00,-1.60 200.80,-1.20 201.60,0.00"/>
    </edge>
    <edge id=":s2_0" function="internal">
        <lane id=":s2_0_0" index="0" speed="3.65" length="4.67" shape="598.40,0.00 599.20,-1.20 600.00,-1.60 600.80,-1.20 601.60,0.00"/>
    </edge>
    <edge id=":w1_0" function="internal">
        <lane id=":w1_0_0" index="0" speed="3.65" length="4.67" shape="0.00,201.60 -1.20,200.80 -1.60,200.00 -1.20,199.20 0.00,198.40"/>
    </edge>

    <edge id="c1_c2" from="center1" to="center2" priority="-1">
        <lane id="c1_c2_0" index="0" speed="13.90" length="379.20" shape="210.40,195.20 589.60,195.20"/>
        <lane id="c1_c2_1" index="1" speed="13.90" length="379.20" shape="210.40,198.40 589.60,198.40"/>
    </edge>
    <edge id="c1_n1" from="center1" to="n1" priority="-1">
        <lane id="c1_n1_0" index="0" speed="13.90" length="189.60" shape="204.80,210.40 204.80,400.00"/>
        <lane id="c1_n1_1" index="1" speed="13.90" length="189.60" shape="201.60,210.40 201.60,400.00"/>
    </edge>
    <edge id="c1_s1" from="center1" to="s1" priority="-1">
        <lane id="c1_s1_0" index="0" speed="13.90" length="189.60" shape="195.20,189.60 195.20,0.00"/>
        <lane id="c1_s1_1" index="1" speed="13.90" length="189.60" shape="198.40,189.60 198.40,0.00"/>
    </edge>
    <edge id="c1_w1" from="center1" to="w1" priority="-1">
        <lane id="c1_w1_0" index="0" speed="13.90" length="189.60" shape="189.60,204.80 0.00,204.80"/>
        <lane id="c1_w1_1" index="1" speed="13.90" length="189.60" shape="189.60,201.60 0.00,201.60"/>
    </edge>
    <edge id="c2_c1" from="center2" to="center1" priority="-1">
        <lane id="c2_c1_0" index="0" speed="13.90" length="379.20" shape="589.60,204.80 210.40,204.80"/>
        <lane id="c2_c1_1" index="1" speed="13.90" length="379.20" shape="589.60,201.60 210.40,201.60"/>
    </edge>
    <edge id="c2_e2" from="center2" to="e2" priority="-1">
        <lane id="c2_e2_0" index="0" speed="13.90" length="189.60" shape="610.40,195.20 800.00,195.20"/>
        <lane id="c2_e2_1" index="1" speed="13.90" length="189.60" shape="610.40,198.40 800.00,198.40"/>
    </edge>
    <edge id="c2_n2" from="center2" to="n2" priority="-1">
        <lane id="c2_n2_0" index="0" speed="13.90" length="189.60" shape="604.80,210.40 604.80,400.00"/>
        <lane id="c2_n2_1" index="1" speed="13.90" length="189.60" shape="601.60,210.40 601.60,400.00"/>
    </edge>
    <edge id="c2_s2" from="center2" to="s2" priority="-1">
        <lane id="c2_s2_0" index="0" speed="13.90" length="189.60" shape="595.20,189.60 595.20,0.00"/>
        <lane id="c2_s2_1" index="1" speed="13.90" length="189.60" shape="598.40,189.60 598.40,0.00"/>
    </edge>
    <edge id="e2_c2" from="e2" to="center2" priority="-1">
        <lane id="e2_c2_0" index="0" speed="13.90" length="189.60" shape="800.00,204.80 610.40,204.80"/>
        <lane id="e2_c2_1" index="1" speed="13.90" length="189.60" shape="800.00,201.60 610.40,201.60"/>
    </edge>
    <edge id="n1_c1" from="n1" to="center1" priority="-1">
        <lane id="n1_c1_0" index="0" speed="13.90" length="189.60" shape="195.20,400.00 195.20,210.40"/>
        <lane id="n1_c1_1" index="1" speed="13.90" length="189.60" shape="198.40,400.00 198.40,210.40"/>
    </edge>
    <edge id="n2_c2" from="n2" to="center2" priority="-1">
        <lane id="n2_c2_0" index="0" speed="13.90" length="189.60" shape="595.20,400.00 595.20,210.40"/>
        <lane id="n2_c2_1" index="1" speed="13.90" length="189.60" shape="598.40,400.00 598.40,210.40"/>
    </edge>
    <edge id="s1_c1" from="s1" to="center1" priority="-1">
        <lane id="s1_c1_0" index="0" speed="13.90" length="189.60" shape="204.80,0.00 204.80,189.60"/>
        <lane id="s1_c1_1" index="1" speed="13.90" length="189.60" shape="201.60,0.00 201.60,189.60"/>
    </edge>
    <edge id="s2_c2" from="s2" to="center2" priority="-1">
        <lane id="s2_c2_0" index="0" speed="13.90" length="189.60" shape="604.80,0.00 604.80,189.60"/>
        <lane id="s2_c2_1" index="1" speed="13.90" length="189.60" shape="601.60,0.00 601.60,189.60"/>
    </edge>
    <edge id="w1_c1" from="w1" to="center1" priority="-1">
        <lane id="w1_c1_0" index="0" speed="13.90" length="189.60" shape="0.00,195.20 189.60,195.20"/>
        <lane id="w1_c1_1" index="1" speed="13.90" length="189.60" shape="0.00,198.40 189.60,198.40"/>
    </edge>

    <tlLogic id="center1" type="static" programID="0" offset="0">
        <phase duration="42" state="GGGggrrrrrGGGggrrrrr"/>
        <phase duration="3"  state="yyyyyrrrrryyyyyrrrrr"/>
        <phase duration="42" state="rrrrrGGGggrrrrrGGGgg"/>
        <phase duration="3"  state="rrrrryyyyyrrrrryyyyy"/>
    </tlLogic>
    <tlLogic id="center2" type="static" programID="0" offset="0">
        <phase duration="42" state="GGGggrrrrrGGGggrrrrr"/>
        <phase duration="3"  state="yyyyyrrrrryyyyyrrrrr"/>
        <phase duration="42" state="rrrrrGGGggrrrrrGGGgg"/>
        <phase duration="3"  state="rrrrryyyyyrrrrryyyyy"/>
    </tlLogic>

    <junction id="center1" type="traffic_light" x="200.00" y="200.00" incLanes="n1_c1_0 n1_c1_1 c2_c1_0 c2_c1_1 s1_c1_0 s1_c1_1 w1_c1_0 w1_c1_1" intLanes=":center1_0_0 :center1_1_0 :center1_1_1 :center1_20_0 :center1_21_0 :center1_5_0 :center1_6_0 :center1_6_1 :center1_22_0 :center1_23_0 :center1_10_0 :center1_11_0 :center1_11_1 :center1_24_0 :center1_25_0 :center1_15_0 :center1_16_0 :center1_16_1 :center1_26_0 :center1_27_0" shape="193.60,210.40 206.40,210.40 206.84,208.18 207.40,207.40 208.18,206.84 209.18,206.51 210.40,206.40 210.40,193.60 208.18,193.16 207.40,192.60 206.84,191.82 206.51,190.82 206.40,189.60 193.60,189.60 193.16,191.82 192.60,192.60 191.82,193.16 190.82,193.49 189.60,193.60 189.60,206.40 191.82,206.84 192.60,207.40 193.16,208.18 193.49,209.18">
        <request index="0"  response="00000000000000000000" foes="00000000000011000000" cont="0"/>
        <request index="1"  response="01000000000000000000" foes="01111110000111000000" cont="0"/>
        <request index="2"  response="01000000000100000000" foes="01111110000111000000" cont="0"/>
        <request index="3"  response="01000001100100000000" foes="01110001101111000000" cont="1"/>
        <request index="4"  response="01000001100000000000" foes="01000001100000000000" cont="1"/>
        <request index="5"  response="00000001100000000000" foes="00000001100000000000" cont="0"/>
        <request index="6"  response="00000011100000001111" foes="11000011100000001111" cont="0"/>
        <request index="7"  response="00000011100000001111" foes="11000011100000001111" cont="0"/>
        <request index="8"  response="00110011100000001110" foes="00110111100000001110" cont="1"/>
        <request index="9"  response="00110000000000001000" foes="00110000000000001000" cont="1"/>
        <request index="10" response="00000000000000000000" foes="00110000000000000000" cont="0"/>
        <request index="11" response="00000000000100000000" foes="01110000000111111000" cont="0"/>
        <request index="12" response="01000000000100000000" foes="01110000000111111000" cont="0"/>
        <request index="13" response="01000000000100000110" foes="11110000000111000110" cont="1"/>
        <request index="14" response="00000000000100000110" foes="00000000000100000110" cont="1"/>
        <request index="15" response="00000000000000000110" foes="00000000000000000110" cont="0"/>
        <request index="16" response="00000011110000001110" foes="00000011111100001110" cont="0"/>
        <request index="17" response="00000011110000001110" foes="00000011111100001110" cont="0"/>
        <request index="18" response="00000011100011001110" foes="00000011100011011110" cont="1"/>
        <request index="19" response="00000010000011000000" foes="00000010000011000000" cont="1"/>
    </junction>
    <junction id="center2" type="traffic_light" x="600.00" y="200.00" incLanes="n2_c2_0 n2_c2_1 e2_c2_0 e2_c2_1 s2_c2_0 s2_c2_1 c1_c2_0 c1_c2_1" intLanes=":center2_0_0 :center2_1_0 :center2_1_1 :center2_20_0 :center2_21_0 :center2_5_0 :center2_6_0 :center2_6_1 :center2_22_0 :center2_23_0 :center2_10_0 :center2_11_0 :center2_11_1 :center2_24_0 :center2_25_0 :center2_15_0 :center2_16_0 :center2_16_1 :center2_26_0 :center2_27_0" shape="593.60,210.40 606.40,210.40 606.84,208.18 607.40,207.40 608.18,206.84 609.18,206.51 610.40,206.40 610.40,193.60 608.18,193.16 607.40,192.60 606.84,191.82 606.51,190.82 606.40,189.60 593.60,189.60 593.16,191.82 592.60,192.60 591.82,193.16 590.82,193.49 589.60,193.60 589.60,206.40 591.82,206.84 592.60,207.40 593.16,208.18 593.49,209.18">
        <request index="0"  response="00000000000000000000" foes="00000000000011000000" cont="0"/>
        <request index="1"  response="01000000000000000000" foes="01111110000111000000" cont="0"/>
        <request index="2"  response="01000000000100000000" foes="01111110000111000000" cont="0"/>
        <request index="3"  response="01000001100100000000" foes="01110001101111000000" cont="1"/>
        <request index="4"  response="01000001100000000000" foes="01000001100000000000" cont="1"/>
        <request index="5"  response="00000001100000000000" foes="00000001100000000000" cont="0"/>
        <request index="6"  response="00000011100000001111" foes="11000011100000001111" cont="0"/>
        <request index="7"  response="00000011100000001111" foes="11000011100000001111" cont="0"/>
        <request index="8"  response="00110011100000001110" foes="00110111100000001110" cont="1"/>
        <request index="9"  response="00110000000000001000" foes="00110000000000001000" cont="1"/>
        <request index="10" response="00000000000000000000" foes="00110000000000000000" cont="0"/>
        <request index="11" response="00000000000100000000" foes="01110000000111111000" cont="0"/>
        <request index="12" response="01000000000100000000" foes="01110000000111111000" cont="0"/>
        <request index="13" response="01000000000100000110" foes="11110000000111000110" cont="1"/>
        <request index="14" response="00000000000100000110" foes="00000000000100000110" cont="1"/>
        <request index="15" response="00000000000000000110" foes="00000000000000000110" cont="0"/>
        <request index="16" response="00000011110000001110" foes="00000011111100001110" cont="0"/>
        <request index="17" response="00000011110000001110" foes="00000011111100001110" cont="0"/>
        <request index="18" response="00000011100011001110" foes="00000011100011011110" cont="1"/>
        <request index="19" response="00000010000011000000" foes="00000010000011000000" cont="1"/>
    </junction>
    <junction id="e2" type="priority" x="800.00" y="200.00" incLanes="c2_e2_0 c2_e2_1" intLanes=":e2_0_0" shape="800.00,200.00 800.00,193.60 800.00,200.00">
        <request index="0" response="0" foes="0" cont="0"/>
    </junction>
    <junction id="n1" type="priority" x="200.00" y="400.00" incLanes="c1_n1_0 c1_n1_1" intLanes=":n1_0_0" shape="200.00,400.00 206.40,400.00 200.00,400.00">
        <request index="0" response="0" foes="0" cont="0"/>
    </junction>
    <junction id="n2" type="priority" x="600.00" y="400.00" incLanes="c2_n2_0 c2_n2_1" intLanes=":n2_0_0" shape="600.00,400.00 606.40,400.00 600.00,400.00">
        <request index="0" response="0" foes="0" cont="0"/>
    </junction>
    <junction id="s1" type="priority" x="200.00" y="0.00" incLanes="c1_s1_0 c1_s1_1" intLanes=":s1_0_0" shape="200.00,0.00 193.60,0.00 200.00,0.00">
        <request index="0" response="0" foes="0" cont="0"/>
    </junction>
    <junction id="s2" type="priority" x="600.00" y="0.00" incLanes="c2_s2_0 c2_s2_1" intLanes=":s2_0_0" shape="600.00,0.00 593.60,0.00 600.00,0.00">
        <request index="0" response="0" foes="0" cont="0"/>
    </junction>
    <junction id="w1" type="priority" x="0.00" y="200.00" incLanes="c1_w1_0 c1_w1_1" intLanes=":w1_0_0" shape="0.00,200.00 0.00,206.40 0.00,200.00">
        <request index="0" response="0" foes="0" cont="0"/>
    </junction>

    <junction id=":center1_20_0" type="internal" x="199.11" y="205.44" incLanes=":center1_3_0 s1_c1_0 s1_c1_1" intLanes=":center1_6_0 :center1_6_1 :center1_8_0 :center1_9_0 :center1_10_0 :center1_11_0 :center1_11_1 :center1_16_0 :center1_16_1 :center1_18_0"/>
    <junction id=":center1_21_0" type="internal" x="199.20" y="209.20" incLanes=":center1_4_0 c2_c1_0 s1_c1_0 s1_c1_1 w1_c1_1" intLanes=":center1_5_0 :center1_11_0 :center1_11_1 :center1_18_0"/>
    <junction id=":center1_22_0" type="internal" x="205.44" y="200.89" incLanes=":center1_8_0 w1_c1_0 w1_c1_1" intLanes=":center1_1_0 :center1_1_1 :center1_3_0 :center1_11_0 :center1_11_1 :center1_13_0 :center1_14_0 :center1_15_0 :center1_16_0 :center1_16_1"/>
    <junction id=":center1_23_0" type="internal" x="209.20" y="200.80" incLanes=":center1_9_0 n1_c1_1 s1_c1_0 w1_c1_0 w1_c1_1" intLanes=":center1_3_0 :center1_10_0 :center1_16_0 :center1_16_1"/>
    <junction id=":center1_24_0" type="internal" x="200.89" y="194.56" incLanes=":center1_13_0 n1_c1_0 n1_c1_1" intLanes=":center1_0_0 :center1_1_0 :center1_1_1 :center1_6_0 :center1_6_1 :center1_8_0 :center1_16_0 :center1_16_1 :center1_18_0 :center1_19_0"/>
    <junction id=":center1_25_0" type="internal" x="200.80" y="190.80" incLanes=":center1_14_0 c2_c1_1 n1_c1_0 n1_c1_1 w1_c1_0" intLanes=":center1_1_0 :center1_1_1 :center1_8_0 :center1_15_0"/>
    <junction id=":center1_26_0" type="internal" x="194.56" y="199.11" incLanes=":center1_18_0 c2_c1_0 c2_c1_1" intLanes=":center1_1_0 :center1_1_1 :center1_3_0 :center1_4_0 :center1_5_0 :center1_6_0 :center1_6_1 :center1_11_0 :center1_11_1 :center1_13_0"/>
    <junction id=":center1_27_0" type="internal" x="190.80" y="199.20" incLanes=":center1_19_0 c2_c1_0 c2_c1_1 n1_c1_0 s1_c1_1" intLanes=":center1_0_0 :center1_6_0 :center1_6_1 :center1_13_0"/>
    <junction id=":center2_20_0" type="internal" x="599.11" y="205.44" incLanes=":center2_3_0 s2_c2_0 s2_c2_1" intLanes=":center2_6_0 :center2_6_1 :center2_8_0 :center2_9_0 :center2_10_0 :center2_11_0 :center2_11_1 :center2_16_0 :center2_16_1 :center2_18_0"/>
    <junction id=":center2_21_0" type="internal" x="599.20" y="209.20" incLanes=":center2_4_0 c1_c2_1 e2_c2_0 s2_c2_0 s2_c2_1" intLanes=":center2_5_0 :center2_11_0 :center2_11_1 :center2_18_0"/>
    <junction id=":center2_22_0" type="internal" x="605.44" y="200.89" incLanes=":center2_8_0 c1_c2_0 c1_c2_1" intLanes=":center2_1_0 :center2_1_1 :center2_3_0 :center2_11_0 :center2_11_1 :center2_13_0 :center2_14_0 :center2_15_0 :center2_16_0 :center2_16_1"/>
    <junction id=":center2_23_0" type="internal" x="609.20" y="200.80" incLanes=":center2_9_0 c1_c2_0 c1_c2_1 n2_c2_1 s2_c2_0" intLanes=":center2_3_0 :center2_10_0 :center2_16_0 :center2_16_1"/>
    <junction id=":center2_24_0" type="internal" x="600.89" y="194.56" incLanes=":center2_13_0 n2_c2_0 n2_c2_1" intLanes=":center2_0_0 :center2_1_0 :center2_1_1 :center2_6_0 :center2_6_1 :center2_8_0 :center2_16_0 :center2_16_1 :center2_18_0 :center2_19_0"/>
    <junction id=":center2_25_0" type="internal" x="600.80" y="190.80" incLanes=":center2_14_0 c1_c2_0 e2_c2_1 n2_c2_0 n2_c2_1" intLanes=":center2_1_0 :center2_1_1 :center2_8_0 :center2_15_0"/>
    <junction id=":center2_26_0" type="internal" x="594.56" y="199.11" incLanes=":center2_18_0 e2_c2_0 e2_c2_1" intLanes=":center2_1_0 :center2_1_1 :center2_3_0 :center2_4_0 :center2_5_0 :center2_6_0 :center2_6_1 :center2_11_0 :center2_11_1 :center2_13_0"/>
    <junction id=":center2_27_0" type="internal" x="590.80" y="199.20" incLanes=":center2_19_0 e2_c2_0 e2_c2_1 n2_c2_0 s2_c2_1" intLanes=":center2_0_0 :center2_6_0 :center2_6_1 :center2_13_0"/>

    <connection from="c1_c2" to="c2_s2" fromLane="0" toLane="0" via=":center2_15_0" tl="center2" linkIndex="15" dir="r" state="o"/>
    <connection from="c1_c2" to="c2_e2" fromLane="0" toLane="0" via=":center2_16_0" tl="center2" linkIndex="16" dir="s" state="o"/>
    <connection from="c1_c2" to="c2_e2" fromLane="1" toLane="1" via=":center2_16_1" tl="center2" linkIndex="17" dir="s" state="o"/>
    <connection from="c1_c2" to="c2_n2" fromLane="1" toLane="1" via=":center2_18_0" tl="center2" linkIndex="18" dir="l" state="o"/>
    <connection from="c1_c2" to="c2_c1" fromLane="1" toLane="1" via=":center2_19_0" tl="center2" linkIndex="19" dir="t" state="o"/>
    <connection from="c1_n1" to="n1_c1" fromLane="1" toLane="1" via=":n1_0_0" dir="t" state="M"/>
    <connection from="c1_s1" to="s1_c1" fromLane="1" toLane="1" via=":s1_0_0" dir="t" state="M"/>
    <connection from="c1_w1" to="w1_c1" fromLane="1" toLane="1" via=":w1_0_0" dir="t" state="M"/>
    <connection from="c2_c1" to="c1_n1" fromLane="0" toLane="0" via=":center1_5_0" tl="center1" linkIndex="5" dir="r" state="o"/>
    <connection from="c2_c1" to="c1_w1" fromLane="0" toLane="0" via=":center1_6_0" tl="center1" linkIndex="6" dir="s" state="o"/>
    <connection from="c2_c1" to="c1_w1" fromLane="1" toLane="1" via=":center1_6_1" tl="center1" linkIndex="7" dir="s" state="o"/>
    <connection from="c2_c1" to="c1_s1" fromLane="1" toLane="1" via=":center1_8_0" tl="center1" linkIndex="8" dir="l" state="o"/>
    <connection from="c2_c1" to="c1_c2" fromLane="1" toLane="1" via=":center1_9_0" tl="center1" linkIndex="9" dir="t" state="o"/>
    <connection from="c2_e2" to="e2_c2" fromLane="1" toLane="1" via=":e2_0_0" dir="t" state="M"/>
    <connection from="c2_n2" to="n2_c2" fromLane="1" toLane="1" via=":n2_0_0" dir="t" state="M"/>
    <connection from="c2_s2" to="s2_c2" fromLane="1" toLane="1" via=":s2_0_0" dir="t" state="M"/>
    <connection from="e2_c2" to="c2_n2" fromLane="0" toLane="0" via=":center2_5_0" tl="center2" linkIndex="5" dir="r" state="o"/>
    <connection from="e2_c2" to="c2_c1" fromLane="0" toLane="0" via=":center2_6_0" tl="center2" linkIndex="6" dir="s" state="o"/>
    <connection from="e2_c2" to="c2_c1" fromLane="1" toLane="1" via=":center2_6_1" tl="center2" linkIndex="7" dir="s" state="o"/>
    <connection from="e2_c2" to="c2_s2" fromLane="1" toLane="1" via=":center2_8_0" tl="center2" linkIndex="8" dir="l" state="o"/>
    <connection from="e2_c2" to="c2_e2" fromLane="1" toLane="1" via=":center2_9_0" tl="center2" linkIndex="9" dir="t" state="o"/>
    <connection from="n1_c1" to="c1_w1" fromLane="0" toLane="0" via=":center1_0_0" tl="center1" linkIndex="0" dir="r" state="O"/>
    <connection from="n1_c1" to="c1_s1" fromLane="0" toLane="0" via=":center1_1_0" tl="center1" linkIndex="1" dir="s" state="O"/>
    <connection from="n1_c1" to="c1_s1" fromLane="1" toLane="1" via=":center1_1_1" tl="center1" linkIndex="2" dir="s" state="O"/>