<?xml version="1.0" encoding="UTF-8"?>

<!-- generated on 2026-03-17 09:54:42 by Eclipse SUMO netconvert Version 1.12.0
<configuration xmlns:xsi="http://www.w3.org/2001/XMLSchema-instance" xsi:noNamespaceSchemaLocation="http://sumo.dlr.de/xsd/netconvertConfiguration.xsd">

    <input>
        <osm-files value="map.osm"/>
    </input>

    <output>
        <output-file value="bologna.net.xml"/>
    </output>

    <projection>
        <proj.utm value="true"/>
    </projection>

    <processing>
        <geometry.remove value="true"/>
        <roundabouts.guess value="true"/>
    </processing>

    <tls_building>
        <tls.discard-simple value="true"/>
        <tls.guess-signals value="true"/>
    </tls_building>

    <ramp_guessing>
        <ramps.guess value="true"/>
    </ramp_guessing>

    <junctions>
        <junctions.join value="true"/>
    </junctions>

    <report>
        <aggregate-warnings value="5"/>
    </report>

</configuration>
-->

<net version="1.9" junctionCornerDetail="5" limitTurnSpeed="5.50" xmlns:xsi="http://www.w3.org/2001/XMLSchema-instance" xsi:noNamespaceSchemaLocation="http://sumo.dlr.de/xsd/net_file.xsd">

    <location netOffset="-683804.81,-4928256.77" convBoundary="0.00,0.00,2908.79,1050.76" origBoundary="11.311674,44.483851,11.348059,44.493199" projParameter="+proj=utm +zone=32 +ellps=WGS84 +datum=WGS84 +units=m +no_defs"/>

    <type id="highway.bridleway" priority="1" numLanes="1" speed="2.78" allow="pedestrian" oneway="1" width="2.00"/>
    <type id="highway.bus_guideway" priority="1" numLanes="1" speed="27.78" allow="bus" oneway="1"/>
    <type id="highway.cycleway" priority="1" numLanes="1" speed="8.33" allow="bicycle" oneway="0" width="1.00"/>
    <type id="highway.footway" priority="1" numLanes="1" speed="2.78" allow="pedestrian" oneway="1" width="2.00"/>
    <type id="highway.ford" priority="1" numLanes="1" speed="2.78" allow="army" oneway="0"/>
    <type id="highway.living_street" priority="2" numLanes="1" speed="2.78" disallow="tram rail_urban rail rail_electric rail_fast ship" oneway="0"/>
    <type id="highway.motorway" priority="14" numLanes="2" speed="39.44" allow="private emergency authority army vip passenger hov taxi bus coach delivery truck trailer motorcycle evehicle custom1 custom2" oneway="1"/>
    <type id="highway.motorway_link" priority="9" numLanes="1" speed="22.22" allow="private emergency authority army vip passenger hov taxi bus coach delivery truck trailer motorcycle evehicle custom1 custom2" oneway="1"/>
    <type id="highway.path" priority="1" numLanes="1" speed="2.78" allow="pedestrian bicycle" oneway="0" width="2.00"/>
    <type id="highway.pedestrian" priority="1" numLanes="1" speed="2.78" allow="pedestrian" oneway="1" width="2.00"/>
    <type id="highway.primary" priority="12" numLanes="2" speed="27.78" disallow="tram rail_urban rail rail_electric rail_fast ship" oneway="0"/>
    <type id="highway.primary_link" priority="7" numLanes="1" speed="22.22" disallow="tram rail_urban rail rail_electric rail_fast ship" oneway="0"/>
    <type id="highway.raceway" priority="15" numLanes="2" speed="83.33" allow="vip" oneway="0"/>
    <type id="highway.residential" priority="3" numLanes="1" speed="13.89" disallow="tram rail_urban rail rail_electric rail_fast ship" oneway="0"/>
    <type id="highway.secondary" priority="11" numLanes="1" speed="27.78" disallow="tram rail_urban rail rail_electric rail_fast ship" oneway="0"/>
    <type id="highway.secondary_link" priority="6" numLanes="1" speed="22.22" disallow="tram rail_urban rail rail_electric rail_fast ship" oneway="0"/>
    <type id="highway.service" priority="1" numLanes="1" speed="5.56" allow="pedestrian delivery bicycle" oneway="0"/>
    <type id="highway.stairs" priority="1" numLanes="1" speed="1.39" allow="pedestrian" oneway="1" width="2.00"/>
    <type id="highway.step" priority="1" numLanes="1" speed="1.39" allow="pedestrian" oneway="1" width="2.00"/>
    <type id="highway.steps" priority="1" numLanes="1" speed="1.39" allow="pedestrian" oneway="1" width="2.00"/>
    <type id="highway.tertiary" priority="10" numLanes="1" speed="22.22" disallow="tram rail_urban rail rail_electric rail_fast ship" oneway="0"/>
    <type id="highway.tertiary_link" priority="5" numLanes="1" speed="22.22" disallow="tram rail_urban rail rail_electric rail_fast ship" oneway="0"/>
    <type id="highway.track" priority="1" numLanes="1" speed="5.56" allow="pedestrian motorcycle moped bicycle" oneway="0"/>
    <type id="highway.trunk" priority="13" numLanes="2" speed="27.78" disallow="pedestrian bicycle tram rail_urban rail rail_electric rail_fast ship" oneway="0"/>
    <type id="highway.trunk_link" priority="8" numLanes="1" speed="22.22" disallow="pedestrian bicycle tram rail_urban rail rail_electric rail_fast ship" oneway="0"/>
    <type id="highway.unclassified" priority="4" numLanes="1" speed="13.89" disallow="tram rail_urban rail rail_electric rail_fast ship" oneway="0"/>
    <type id="highway.unsurfaced" priority="1" numLanes="1" speed="8.33" disallow="tram rail_urban rail rail_electric rail_fast ship" oneway="0"/>
    <type id="railway.highspeed" priority="21" numLanes="1" speed="69.44" allow="rail_fast" oneway="1"/>
    <type id="railway.light_rail" priority="19" numLanes="1" speed="27.78" allow="rail_urban" oneway="1"/>
    <type id="railway.preserved" priority="16" numLanes="1" speed="27.78" allow="rail" oneway="1"/>
    <type id="railway.rail" priority="20" numLanes="1" speed="44.44" allow="rail" oneway="1"/>
    <type id="railway.subway" priority="18" numLanes="1" speed="27.78" allow="rail_urban" oneway="1"/>
    <type id="railway.tram" priority="17" numLanes="1" speed="13.89" allow="tram" oneway="1"/>

    <edge id=":10101027646_0" function="internal">
        <lane id=":10101027646_0_0" index="0" disallow="tram rail_urban rail rail_electric rail_fast ship" speed="8.33" length="5.33" shape="2257.44,529.10 2255.93,529.56 2254.89,529.91 2253.93,530.42 2252.66,531.34"/>
    </edge>
    <edge id=":1018788103_0" function="internal">
        <lane id=":1018788103_0_0" index="0" allow="pedestrian delivery bicycle" speed="3.65" length="4.67" shape="1416.20,404.22 1414.85,403.70 1414.29,403.01 1414.50,402.14 1415.50,401.09"/>
    </edge>
    <edge id=":1018788105_0" function="internal">
        <lane id=":1018788105_0_0" index="0" allow="pedestrian delivery bicycle" speed="3.65" length="4.67" shape="1343.93,470.18 1343.47,471.55 1342.80,472.14 1341.92,471.96 1340.84,471.01"/>
    </edge>
    <edge id=":1018788109_0" function="internal">
        <lane id=":1018788109_0_0" index="0" allow="pedestrian delivery bicycle" speed="5.56" length="9.48" shape="1362.73,475.68 1353.48,477.73"/>
    </edge>
    <edge id=":1018788109_1" function="internal">
        <lane id=":1018788109_1_0" index="0" allow="pedestrian delivery bicycle" speed="5.56" length="10.21" shape="1362.73,475.68 1360.02,475.89 1357.84,475.16 1356.20,473.48 1355.09,470.85"/>
    </edge>
    <edge id=":1018788109_2" function="internal">
        <lane id=":1018788109_2_0" index="0" allow="pedestrian delivery bicycle" speed="3.65" length="4.67" shape="1362.73,475.68 1361.38,475.17 1360.81,474.48 1361.02,473.61 1362.01,472.56"/>
    </edge>
    <edge id=":1018788109_3" function="internal">
        <lane id=":1018788109_3_0" index="0" allow="pedestrian delivery bicycle" speed="5.19" length="5.20" shape="1358.18,470.02 1358.75,471.38 1359.58,472.26 1360.66,472.65 1362.01,472.56"/>
    </edge>
    <edge id=":1018788109_4" function="internal">
        <lane id=":1018788109_4_0" index="0" allow="pedestrian delivery bicycle" speed="5.56" length="10.43" shape="1358.18,470.02 1358.53,472.88 1357.86,475.11 1356.18,476.73 1353.48,477.73"/>
    </edge>
    <edge id=":1018788109_5" function="internal">
        <lane id=":1018788109_5_0" index="0" allow="pedestrian delivery bicycle" speed="3.65" length="4.67" shape="1358.18,470.02 1357.72,471.39 1357.05,471.98 1356.18,471.80 1355.09,470.85"/>
    </edge>
    <edge id=":1018788109_6" function="internal">
        <lane id=":1018788109_6_0" index="0" allow="pedestrian delivery bicycle" speed="4.98" length="5.06" shape="1352.81,474.60 1354.12,474.11 1354.94,473.33 1355.26,472.24 1355.09,470.85"/>
    </edge>
    <edge id=":1018788109_7" function="internal">
        <lane id=":1018788109_7_0" index="0" allow="pedestrian delivery bicycle" speed="5.56" length="9.43" shape="1352.81,474.60 1362.01,472.56"/>
    </edge>
    <edge id=":1018788109_8" function="internal">
        <lane id=":1018788109_8_0" index="0" allow="pedestrian delivery bicycle" speed="3.65" length="4.67" shape="1352.81,474.60 1354.15,475.13 1354.71,475.83 1354.49,476.69 1353.48,477.73"/>
    </edge>
    <edge id=":1018788208_0" function="internal">
        <lane id=":1018788208_0_0" index="0" allow="pedestrian delivery bicycle" speed="5.56" length="15.56" shape="1512.63,405.53 1511.07,402.15 1508.55,399.17 1505.60,396.41 1502.79,393.71"/>
    </edge>
    <edge id=":1018788208_1" function="internal">
        <lane id=":1018788208_1_0" index="0" allow="pedestrian delivery bicycle" speed="5.56" length="16.41" shape="1512.63,405.53 1508.47,389.65"/>
    </edge>
    <edge id=":1018788208_2" function="internal">
        <lane id=":1018788208_2_0" index="0" allow="pedestrian delivery bicycle" speed="3.65" length="4.67" shape="1512.63,405.53 1513.12,404.17 1513.80,403.59 1514.67,403.79 1515.74,404.76"/>
    </edge>
    <edge id=":1018788208_3" function="internal">
        <lane id=":1018788208_3_0" index="0" allow="pedestrian delivery bicycle" speed="5.56" length="16.46" shape="1511.57,388.83 1515.74,404.76"/>
    </edge>
    <edge id=":1018788208_4" function="internal">
        <lane id=":1018788208_4_0" index="0" allow="pedestrian delivery bicycle" speed="5.56" length="13.69" shape="1511.57,388.83 1511.33,392.44 1509.15,394.82 1505.97,395.42 1502.79,393.71"/>
    </edge>
    <edge id=":1018788208_5" function="internal">
        <lane id=":1018788208_5_0" index="0" allow="pedestrian delivery bicycle" speed="3.65" length="4.67" shape="1511.57,388.83 1511.10,390.20 1510.43,390.79 1509.55,390.61 1508.47,389.65"/>
    </edge>
    <edge id=":1018788208_6" function="internal">
        <lane id=":1018788208_6_0" index="0" allow="pedestrian delivery bicycle" speed="4.94" length="8.68" shape="1505.12,391.52 1507.33,393.53 1508.63,393.89 1509.01,392.60 1508.47,389.65"/>
    </edge>
    <edge id=":1018788208_7" function="internal">
        <lane id=":1018788208_7_0" index="0" allow="pedestrian delivery bicycle" speed="5.56" length="17.14" shape="1505.12,391.52 1508.05,394.44 1511.26,397.68 1514.05,401.15 1515.74,404.76"/>
    </edge>
    <edge id=":1018788208_8" function="internal">
        <lane id=":1018788208_8_0" index="0" allow="pedestrian delivery bicycle" speed="3.65" length="4.67" shape="1505.12,391.52 1505.36,392.94 1505.05,393.78 1504.19,394.04 1502.79,393.71"/>
    </edge>
    <edge id=":1018788209_0" function="internal">
        <lane id=":1018788209_0_0" index="0" allow="pedestrian delivery bicycle" speed="4.63" length="4.01" shape="1350.09,452.17 1349.64,450.85 1349.08,449.96 1348.41,449.52 1347.65,449.50"/>
    </edge>
    <edge id=":1018788209_1" function="internal">
        <lane id=":1018788209_1_0" index="0" allow="pedestrian delivery bicycle" speed="5.56" length="10.25" shape="1350.09,452.17 1349.77,449.37 1350.42,447.16 1352.05,445.52 1354.66,444.47"/>
    </edge>
    <edge id=":1018788209_2" function="internal">
        <lane id=":1018788209_2_0" index="0" allow="pedestrian delivery bicycle" speed="3.65" length="4.67" shape="1350.09,452.17 1350.56,450.80 1351.23,450.21 1352.11,450.39 1353.19,451.35"/>
    </edge>
    <edge id=":1018788209_3" function="internal">
        <lane id=":1018788209_3_0" index="0" allow="pedestrian delivery bicycle" speed="5.02" length="5.02" shape="1355.43,447.58 1354.15,448.09 1353.35,448.89 1353.03,449.98 1353.19,451.35"/>
    </edge>
    <edge id=":1018788209_4" function="internal">
        <lane id=":1018788209_4_0" index="0" allow="pedestrian delivery bicycle" speed="5.56" length="8.01" shape="1355.43,447.58 1347.65,449.50"/>
    </edge>
    <edge id=":1018788209_5" function="internal">
        <lane id=":1018788209_5_0" index="0" allow="pedestrian delivery bicycle" speed="3.65" length="4.67" shape="1355.43,447.58 1354.07,447.09 1353.49,446.41 1353.69,445.53 1354.66,444.47"/>
    </edge>
    <edge id=":1018788209_6" function="internal">
        <lane id=":1018788209_6_0" index="0" allow="pedestrian delivery bicycle" speed="5.56" length="8.03" shape="1346.87,446.40 1354.66,444.47"/>
    </edge>
    <edge id=":1018788209_7" function="internal">
        <lane id=":1018788209_7_0" index="0" allow="pedestrian delivery bicycle" speed="5.56" length="9.08" shape="1346.87,446.40 1349.03,446.27 1350.80,447.05 1352.18,448.74 1353.19,451.35"/>
    </edge>
    <edge id=":1018788209_8" function="internal">
        <lane id=":1018788209_8_0" index="0" allow="pedestrian delivery bicycle" speed="3.65" length="4.67" shape="1346.87,446.40 1348.23,446.88 1348.81,447.56 1348.62,448.43 1347.65,449.50"/>
    </edge>
    <edge id=":10560235718_0" function="internal">
        <lane id=":10560235718_0_0" index="0" allow="pedestrian delivery bicycle" speed="5.56" length="5.00" shape="1524.08,452.51 1522.92,447.64"/>
    </edge>
    <edge id=":10560235718_1" function="internal">
        <lane id=":10560235718_1_0" index="0" allow="pedestrian delivery bicycle" speed="3.65" length="1.44" shape="1524.08,452.51 1524.58,451.15"/>
    </edge>
    <edge id=":10560235718_4" function="internal">
        <lane id=":10560235718_4_0" index="0" allow="pedestrian delivery bicycle" speed="3.65" length="3.23" shape="1524.58,451.15 1525.27,450.58 1526.14,450.78 1527.19,451.76"/>
    </edge>
    <edge id=":10560235718_2" function="internal">
        <lane id=":10560235718_2_0" index="0" allow="pedestrian delivery bicycle" speed="5.56" length="5.00" shape="1526.03,446.90 1527.19,451.76"/>
    </edge>
    <edge id=":10560235718_3" function="internal">
        <lane id=":10560235718_3_0" index="0" allow="pedestrian delivery bicycle" speed="3.65" length="1.44" shape="1526.03,446.90 1525.53,448.25"/>
    </edge>
    <edge id=":10560235718_5" function="internal">
        <lane id=":10560235718_5_0" index="0" allow="pedestrian delivery bicycle" speed="3.65" length="3.23" shape="1525.53,448.25 1524.85,448.83 1523.98,448.62 1522.92,447.64"/>
    </edge>
    <edge id=":10598594255_0" function="internal">
        <lane id=":10598594255_0_0" index="0" allow="pedestrian delivery bicycle" speed="5.56" length="5.02" shape="1422.23,402.85 1417.33,403.96"/>
    </edge>
    <edge id=":10598594255_1" function="internal">
        <lane id=":10598594255_1_0" index="0" allow="pedestrian delivery bicycle" speed="3.65" length="4.67" shape="1422.23,402.85 1420.88,402.34 1420.31,401.65 1420.52,400.78 1421.51,399.73"/>
    </edge>
    <edge id=":10598594255_2" function="internal">
        <lane id=":10598594255_2_0" index="0" allow="pedestrian delivery bicycle" speed="5.56" length="5.01" shape="1416.63,400.84 1421.51,399.73"/>
    </edge>
    <edge id=":10598594255_3" function="internal">
        <lane id=":10598594255_3_0" index="0" allow="pedestrian delivery bicycle" speed="3.65" length="4.67" shape="1416.63,400.84 1417.98,401.36 1418.54,402.05 1418.33,402.92 1417.33,403.96"/>
    </edge>
    <edge id=":10681284749_0" function="internal">
        <lane id=":10681284749_0_0" index="0" disallow="tram rail_urban rail rail_electric rail_fast ship" speed="6.74" length="4.15" shape="1368.12,711.52 1368.43,712.40 1368.95,713.22 1369.69,713.98 1370.65,714.67"/>
    </edge>
    <edge id=":10681284749_1" function="internal">
        <lane id=":10681284749_1_0" index="0" disallow="tram rail_urban rail rail_electric rail_fast ship" speed="8.33" length="6.78" shape="1364.99,712.17 1365.53,714.13 1365.97,715.50 1366.09,716.86 1365.69,718.76"/>
    </edge>
    <edge id=":10865503970_0" function="internal">
        <lane id=":10865503970_0_0" index="0" allow="pedestrian delivery bicycle" speed="5.56" length="7.70" shape="1347.45,449.55 1339.98,451.42"/>
    </edge>
    <edge id=":10865503970_1" function="internal">
        <lane id=":10865503970_1_0" index="0" allow="pedestrian delivery bicycle" speed="5.56" length="11.72" shape="1347.45,449.55 1344.33,449.80 1342.34,448.72 1341.48,446.31 1341.75,442.56"/>
    </edge>
    <edge id=":10865503970_2" function="internal">
        <lane id=":10865503970_2_0" index="0" allow="pedestrian delivery bicycle" speed="3.65" length="4.67" shape="1347.45,449.55 1346.10,449.06 1345.51,448.39 1345.71,447.51 1346.68,446.45"/>
    </edge>
    <edge id=":10865503970_3" function="internal">
        <lane id=":10865503970_3_0" index="0" allow="pedestrian delivery bicycle" speed="4.40" length="4.73" shape="1344.90,443.15 1344.73,444.83 1344.97,445.94 1345.62,446.48 1346.68,446.45"/>
    </edge>
    <edge id=":10865503970_4" function="internal">
        <lane id=":10865503970_4_0" index="0" allow="pedestrian delivery bicycle" speed="5.56" length="10.08" shape="1344.90,443.15 1344.07,446.44 1342.97,448.91 1341.61,450.57 1339.98,451.42"/>
    </edge>
    <edge id=":10865503970_5" function="internal">
        <lane id=":10865503970_5_0" index="0" allow="pedestrian delivery bicycle" speed="3.65" length="4.67" shape="1344.90,443.15 1343.89,444.18 1343.03,444.42 1342.31,443.88 1341.75,442.56"/>
    </edge>
    <edge id=":10865503970_6" function="internal">
        <lane id=":10865503970_6_0" index="0" allow="pedestrian delivery bicycle" speed="5.56" length="6.98" shape="1338.59,448.47 1339.60,447.90 1340.46,446.72 1341.17,444.94 1341.75,442.56"/>
    </edge>
    <edge id=":10865503970_7" function="internal">
        <lane id=":10865503970_7_0" index="0" allow="pedestrian delivery bicycle" speed="5.56" length="8.33" shape="1338.59,448.47 1346.68,446.45"/>
    </edge>
    <edge id=":10865503970_8" function="internal">
        <lane id=":10865503970_8_0" index="0" allow="pedestrian delivery bicycle" speed="3.67" length="4.76" shape="1338.59,448.47 1340.05,448.68 1340.76,449.25 1340.74,450.16 1339.98,451.42"/>
    </edge>
    <edge id=":10879024099_0" function="internal">
        <lane id=":10879024099_0_0" index="0" allow="bicycle" speed="8.33" length="5.57" width="1.00" shape="2211.66,312.26 2206.57,314.54"/>
    </edge>
    <edge id=":10879024099_1" function="internal">
        <lane id=":10879024099_1_0" index="0" allow="bicycle" speed="2.04" length="0.73" width="1.00" shape="2211.66,312.26 2211.22,312.17 2211.01,311.98"/>
    </edge>
    <edge id=":10879024099_4" function="internal">
        <lane id=":10879024099_4_0" index="0" allow="bicycle" speed="2.04" length="0.73" width="1.00" shape="2211.01,311.98 2211.03,311.70 2211.28,311.33"/>
    </edge>
    <edge id=":10879024099_2" function="internal">
        <lane id=":10879024099_2_0" index="0" allow="bicycle" speed="8.33" length="5.64" width="1.00" shape="2206.13,313.64 2211.28,311.33"/>
    </edge>
    <edge id=":10879024099_3" function="internal">
        <lane id=":10879024099_3_0" index="0" allow="bicycle" speed="2.04" length="0.73" width="1.00" shape="2206.13,313.64 2206.58,313.70 2206.80,313.87"/>
    </edge>
    <edge id=":10879024099_5" function="internal">
        <lane id=":10879024099_5_0" index="0" allow="bicycle" speed="2.04" length="0.73" width="1.00" shape="2206.80,313.87 2206.80,314.15 2206.57,314.54"/>
    </edge>
    <edge id=":10879083931_0" function="internal">
        <lane id=":10879083931_0_0" index="0" allow="bicycle" speed="2.04" length="1.46" width="1.00" shape="2473.13,271.10 2473.53,271.30 2473.69,271.53 2473.59,271.79 2473.25,272.09"/>
    </edge>
    <edge id=":11052554075_0" function="internal">
        <lane id=":11052554075_0_0" index="0" allow="pedestrian delivery bicycle" speed="3.65" length="4.67" shape="1606.27,468.00 1604.84,467.91 1604.09,467.41 1604.04,466.52 1604.69,465.23"/>
    </edge>
    <edge id=":11052554082_0" function="internal">
        <lane id=":11052554082_0_0" index="0" disallow="tram rail_urban rail rail_electric rail_fast ship" speed="8.33" length="9.61" shape="1561.56,353.27 1559.43,351.42 1558.24,349.89 1557.20,348.19 1555.54,345.87"/>
    </edge>
    <edge id=":11052554082_1" function="internal">
        <lane id=":11052554082_1_0" index="0" allow="pedestrian delivery bicycle" speed="6.51" length="4.25" shape="1561.56,353.27 1559.25,350.86 1559.08,349.97"/>
    </edge>
    <edge id=":11052554082_7" function="internal">
        <lane id=":11052554082_7_0" index="0" allow="pedestrian delivery bicycle" speed="6.51" length="8.02" shape="1559.08,349.97 1558.81,348.55 1560.24,346.32 1563.54,344.19"/>
    </edge>
    <edge id=":11052554082_2" function="internal">
        <lane id=":11052554082_2_0" index="0" allow="pedestrian delivery bicycle" speed="4.66" length="5.58" shape="1564.95,347.06 1563.47,348.02 1562.84,349.03 1563.06,350.09 1564.13,351.20"/>
    </edge>
    <edge id=":11052554082_3" function="internal">
        <lane id=":11052554082_3_0" index="0" allow="pedestrian delivery bicycle" speed="6.95" length="10.36" shape="1564.95,347.06 1562.09,348.11 1559.57,348.26 1557.38,347.51 1555.54,345.87"/>
    </edge>
    <edge id=":11052554082_4" function="internal">
        <lane id=":11052554082_4_0" index="0" allow="pedestrian delivery bicycle" speed="3.65" length="4.67" shape="1564.95,347.06 1563.52,346.87 1562.81,346.33 1562.82,345.44 1563.54,344.19"/>
    </edge>
    <edge id=":11052554082_5" function="internal">
        <lane id=":11052554082_5_0" index="0" allow="pedestrian delivery bicycle" speed="5.87" length="5.98" shape="1558.04,343.87 1559.03,344.70 1560.28,345.04 1561.78,344.86 1563.54,344.19"/>
    </edge>
    <edge id=":11052554082_6" function="internal">
        <lane id=":11052554082_6_0" index="0" disallow="tram rail_urban rail rail_electric rail_fast ship" speed="8.33" length="9.60" shape="1558.04,343.87 1559.71,346.18 1560.77,347.85 1561.99,349.36 1564.13,351.20"/>
    </edge>
    <edge id=":11052554083_0" function="internal">
        <lane id=":11052554083_0_0" index="0" allow="pedestrian delivery bicycle" speed="3.65" length="4.67" shape="1629.56,311.58 1630.99,311.77 1631.70,312.31 1631.70,313.21 1630.98,314.45"/>
    </edge>
    <edge id=":11067329813_0" function="internal">
        <lane id=":11067329813_0_0" index="0" allow="pedestrian delivery bicycle" speed="5.56" length="11.40" shape="2239.74,572.30 2240.52,575.94 2241.97,578.01 2244.08,578.51 2246.86,577.45"/>
    </edge>
    <edge id=":11067329944_0" function="internal">
        <lane id=":11067329944_0_0" index="0" allow="pedestrian delivery bicycle" speed="5.56" length="5.36" shape="2247.80,576.90 2248.82,576.06 2249.41,575.00 2249.58,573.71 2249.32,572.21"/>
    </edge>
    <edge id=":11067330077_0" function="internal">
        <lane id=":11067330077_0_0" index="0" allow="pedestrian delivery bicycle" speed="4.98" length="5.07" shape="2166.64,466.02 2166.32,464.66 2165.63,463.75 2164.59,463.30 2163.19,463.31"/>
    </edge>
    <edge id=":11067330077_1" function="internal">
        <lane id=":11067330077_1_0" index="0" allow="pedestrian delivery bicycle" speed="5.56" length="9.39" shape="2166.64,466.02 2165.83,456.67"/>
    </edge>
    <edge id=":11067330077_2" function="internal">
        <lane id=":11067330077_2_0" index="0" allow="pedestrian delivery bicycle" speed="3.65" length="4.67" shape="2166.64,466.02 2167.33,464.75 2168.09,464.28 2168.92,464.60 2169.83,465.72"/>
    </edge>
    <edge id=":11067330077_3" function="internal">
        <lane id=":11067330077_3_0" index="0" allow="pedestrian delivery bicycle" speed="5.56" length="9.33" shape="2169.03,456.43 2169.83,465.72"/>
    </edge>
    <edge id=":11067330077_4" function="internal">
        <lane id=":11067330077_4_0" index="0" allow="pedestrian delivery bicycle" speed="5.56" length="10.26" shape="2169.03,456.43 2168.98,459.06 2167.99,461.09 2166.06,462.51 2163.19,463.31"/>
    </edge>
    <edge id=":11067330077_5" function="internal">
        <lane id=":11067330077_5_0" index="0" allow="pedestrian delivery bicycle" speed="3.65" length="4.68" shape="2169.03,456.43 2168.32,457.69 2167.55,458.15 2166.72,457.81 2165.83,456.67"/>
    </edge>
    <edge id=":11067330077_6" function="internal">
        <lane id=":11067330077_6_0" index="0" allow="pedestrian delivery bicycle" speed="5.18" length="5.30" shape="2162.72,460.15 2164.24,459.73 2165.26,459.01 2165.79,457.99 2165.83,456.67"/>
    </edge>
    <edge id=":11067330077_7" function="internal">
        <lane id=":11067330077_7_0" index="0" allow="pedestrian delivery bicycle" speed="5.56" length="10.44" shape="2162.72,460.15 2165.60,460.13 2167.75,461.05 2169.16,462.92 2169.83,465.72"/>
    </edge>
    <edge id=":11067330077_8" function="internal">
        <lane id=":11067330077_8_0" index="0" allow="pedestrian delivery bicycle" speed="3.65" length="4.67" shape="2162.72,460.15 2164.03,460.76 2164.54,461.49 2164.26,462.34 2163.19,463.31"/>
    </edge>
    <edge id=":11067330078_0" function="internal">
        <lane id=":11067330078_0_0" index="0" allow="pedestrian delivery bicycle" speed="3.65" length="4.67" shape="2162.84,435.69 2163.47,434.39 2164.20,433.88 2165.05,434.16 2166.01,435.24"/>
    </edge>
    <edge id=":11067330080_0" function="internal">
        <lane id=":11067330080_0_0" index="0" allow="pedestrian delivery bicycle" speed="8.33" length="9.30" shape="2116.15,474.30 2112.87,465.59"/>
    </edge>
    <edge id=":11067330080_1" function="internal">
        <lane id=":11067330080_1_0" index="0" allow="pedestrian delivery bicycle" speed="6.71" length="3.38" shape="2116.15,474.30 2115.53,471.18 2115.57,470.99"/>
    </edge>
    <edge id=":11067330080_2" function="internal">
        <lane id=":11067330080_2_0" index="0" allow="pedestrian delivery bicycle" speed="3.65" length="1.44" shape="2116.15,474.30 2116.51,472.90"/>
    </edge>
    <edge id=":11067330080_9" function="internal">
        <lane id=":11067330080_9_0" index="0" allow="pedestrian delivery bicycle" speed="6.71" length="7.81" shape="2115.57,470.99 2116.12,468.82 2117.92,467.20 2120.94,466.33"/>
    </edge>
    <edge id=":11067330080_10" function="internal">
        <lane id=":11067330080_10_0" index="0" allow="pedestrian delivery bicycle" speed="3.65" length="3.23" shape="2116.51,472.90 2117.13,472.26 2118.01,472.37 2119.17,473.23"/>
    </edge>
    <edge id=":11067330080_3" function="internal">
        <lane id=":11067330080_3_0" index="0" allow="pedestrian delivery bicycle" speed="4.84" length="5.25" shape="2121.42,469.50 2120.00,469.90 2119.15,470.66 2118.88,471.77 2119.17,473.23"/>
    </edge>
    <edge id=":11067330080_4" function="internal">
        <lane id=":11067330080_4_0" index="0" allow="pedestrian delivery bicycle" speed="6.95" length="10.20" shape="2121.42,469.50 2118.42,469.59 2115.99,468.97 2114.14,467.64 2112.87,465.59"/>
    </edge>
    <edge id=":11067330080_5" function="internal">
        <lane id=":11067330080_5_0" index="0" allow="pedestrian delivery bicycle" speed="3.65" length="4.67" shape="2121.42,469.50 2120.12,468.89 2119.60,468.16 2119.88,467.30 2120.94,466.33"/>
    </edge>
    <edge id=":11067330080_6" function="internal">
        <lane id=":11067330080_6_0" index="0" allow="pedestrian delivery bicycle" speed="5.93" length="5.91" shape="2115.83,464.38 2116.53,465.44 2117.62,466.12 2119.09,466.42 2120.94,466.33"/>
    </edge>
    <edge id=":11067330080_7" function="internal">
        <lane id=":11067330080_7_0" index="0" allow="pedestrian delivery bicycle" speed="8.33" length="9.46" shape="2115.83,464.38 2119.17,473.23"/>
    </edge>
    <edge id=":11067330080_8" function="internal">
        <lane id=":11067330080_8_0" index="0" allow="pedestrian delivery bicycle" speed="3.65" length="1.44" shape="2115.83,464.38 2115.54,465.79"/>
    </edge>
    <edge id=":11067330080_11" function="internal">
        <lane id=":11067330080_11_0" index="0" allow="pedestrian delivery bicycle" speed="3.65" length="3.23" shape="2115.54,465.79 2114.96,466.47 2114.06,466.40 2112.87,465.59"/>
    </edge>
    <edge id=":11067330091_0" function="internal">
        <lane id=":11067330091_0_0" index="0" allow="pedestrian delivery bicycle" speed="3.65" length="4.67" shape="2171.02,478.55 2170.33,479.82 2169.57,480.29 2168.74,479.97 2167.83,478.84"/>
    </edge>
    <edge id=":11067330096_0" function="internal">
        <lane id=":11067330096_0_0" index="0" disallow="tram rail_urban rail rail_electric rail_fast ship" speed="8.33" length="5.33" shape="2231.67,427.22 2231.49,421.89"/>
    </edge>
    <edge id=":11067330096_1" function="internal">
        <lane id=":11067330096_1_0" index="0" disallow="tram rail_urban rail rail_electric rail_fast ship" speed="8.33" length="5.23" shape="2234.69,421.84 2234.86,427.07"/>
    </edge>
    <edge id=":11068880560_0" function="internal">
        <lane id=":11068880560_0_0" index="0" allow="pedestrian delivery bicycle" speed="3.65" length="4.67" shape="1890.34,550.46 1890.63,549.04 1891.22,548.37 1892.11,548.44 1893.31,549.25"/>
    </edge>
    <edge id=":11068880585_0" function="internal">
        <lane id=":11068880585_0_0" index="0" allow="pedestrian delivery bicycle" speed="3.65" length="4.67" shape="2036.64,444.76 2036.90,443.34 2037.47,442.65 2038.37,442.70 2039.58,443.49"/>
    </edge>
    <edge id=":11069682274_0" function="internal">
        <lane id=":11069682274_0_0" index="0" allow="pedestrian delivery bicycle" speed="3.65" length="4.67" shape="2075.29,860.27 2075.58,861.68 2075.31,862.53 2074.46,862.82 2073.04,862.55"/>
    </edge>
    <edge id=":11069682280_0" function="internal">
        <lane id=":11069682280_0_0" index="0" allow="pedestrian delivery bicycle" speed="3.65" length="4.67" shape="2054.73,824.37 2055.13,822.99 2055.78,822.37 2056.66,822.51 2057.78,823.42"/>
    </edge>
    <edge id=":11069682280_1" function="internal">